Flow Title=SmederevskaAdaD-u-Q= 9600m3/s
Program Version=4.00
Number of Profiles= 1 
Profile Names=9600 m3/s
River Rch & RM=Dunav,Dunav 4         ,1124.800
    9600
Boundary for River Rch & Prof#=Dunav,Dunav 4         , 1 
Up Type= 0 
Dn Type= 1 
Dn Known WS=71.21
DSS Import StartDate=
DSS Import StartTime=
DSS Import EndDate=
DSS Import EndTime=
DSS Import GetInterval= 0 
DSS Import Interval=
DSS Import GetPeak= 0 
DSS Import FillOption= 0 
