Geom Title=Test 4 - GrocanskeAde - Q=2000m3/s
Program Version=4.00
Viewing Rectangle= 7470880.23 , 7491790.09 , 4957497.71 , 4945397 

Junct Name=Grocka1         
Junct Desc=, 0 , 0 ,-1 
Junct X Y & Text X Y=7478493,4947979.5,7478493,4947979.5
Up River,Reach=Dunav           ,Dunav 4         
Dn River,Reach=Dunav           ,DunavGrocka3    
Dn River,Reach=Dunav           ,DunavGrocka2    
Junc L&A=822.47,
Junc L&A=831.91,

Junct Name=Grocka2         
Junct Desc=, 0 , 0 ,-1 
Junct X Y & Text X Y=7482116.5,4946141,7482116.5,4946141
Up River,Reach=Dunav           ,DunavGrocka2    
Up River,Reach=Dunav           ,DunavGrocka3    
Dn River,Reach=Dunav           ,DunavGrockaSmed 
Junc L&A=382.66,
Junc L&A=324.87,

River Reach=Dunav           ,Dunav 4         
Reach XY= 11 
     7471141.585     4957379.074     7471522.048     4956737.419
     7472432.398     4955782.667      7473846.24     4955064.943
     7474915.973      4954033.21     7475822.724     4952405.649
     7476368.804     4951478.593     7477229.084     4950357.144
     7478345.098     4948821.185     7478395.827     4948776.758
 7478492.9999838 4947979.5000259
Rch Text X Y=7472955.1455,4955228.495
Reverse River Text= 0 

Type RM Length L Ch R = 1 ,1143.660,96.946,97.414,98.801
BEGIN DESCRIPTION:
00047 PA-46
END DESCRIPTION:
XS GIS Cut Line=2
      7471875.53      4957370.92      7471085.23      4956781.47
Node Last Edited Time=Dec/18/2015 15:37:49
#Sta/Elev= 35 
     238   71.95  250.53   69.54  252.35    67.7  260.99   65.08  275.46   61.82
  287.09   61.07  313.81   61.27  344.06    60.6  359.25   60.83  377.32   60.25
  419.19   60.14  439.47   59.39  453.39    59.6  483.52   58.64  493.65   58.09
   551.5    56.6  583.56   55.32  594.35    55.5  641.42   54.35  666.56   54.32
  707.39    53.4   717.7   52.43  732.59   53.72  761.23   56.73  778.06   60.15
  785.21   63.13  805.36   63.76   813.1   64.91  856.78   65.81  875.55   66.71
  898.18   66.54  924.06   67.39  948.18   69.56   958.971.64784  958.91   71.65
#Mann= 4 ,-1 , 0 
     238    .023       0  483.52    .023       0  732.59    .023       0
  898.18    .023       0
Bank Sta=238,958.9
XS Rating Curve= 0 ,0
XS HTab Starting El and Incr=52.58,0.3, 65 
Exp/Cntr=0.3,0.1

Type RM Length L Ch R = 1 ,1143.56*,96.946,97.414,98.801
XS GIS Cut Line=2
7471929.713637524957294.139089277471144.766364914956702.51818013
Node Last Edited Time=Dec/18/2015 15:37:49
#Sta/Elev= 71 
 244.091  71.933 255.527  69.846 256.297  69.696  258.07  67.999 266.486  65.499
 270.257  64.653 274.695  63.541 280.582  62.159  283.38  61.922 291.911  61.282
 294.299  61.264 317.941  61.292 318.559  61.275 347.408  60.625 362.206  60.807
 366.711  60.663 379.808   60.23 406.504   60.08 420.596  60.021 440.351  59.304
 443.085  59.338 453.911  59.444 483.262  58.445 485.465  58.324  493.13  57.915
 516.082  57.301 549.484  56.375 576.214  55.281 580.715  55.108 591.226  55.258
  633.76  54.233 637.079  54.156 661.569  54.116 690.966  53.484 701.343  53.249
 711.386  52.351 719.791  53.066 726.467  53.599 729.803   53.92 741.545  54.999
 743.347  55.215 755.475   56.43  764.08   58.05 765.526  58.385  771.65   59.53
 772.521  59.686 779.763  62.369 787.173   62.55 794.185  62.752 800.171  63.077
 800.575  63.141 806.291  63.904 808.011  64.175 822.773  64.807 835.509   65.17
 852.251  65.529 864.345  66.085 871.262  66.447 875.617  66.458 878.519  66.506
 888.238  66.518 894.183  66.498 906.903  66.915 918.103  67.331 920.395  67.428
 930.689  68.391 940.878   69.24 944.824  69.586  951.28  70.759 955.682  71.619
 955.695  71.622
#Mann= 9 , 1 , 0 
 244.091    .023       0 473.951    .023       0  486.44    .023       0
 717.123    .023       0 732.294    .023       0  892.45    .023       0
 895.746    .023       0 955.682    .023       0 955.695    .023       0
Bank Sta=244.091,955.682
XS Rating Curve= 0 ,0
XS HTab Starting El and Incr=52.5,0.3, 66 
Exp/Cntr=0.3,0.1

Type RM Length L Ch R = 1 ,1143.46*,96.946,97.414,98.801
XS GIS Cut Line=2
7471983.897275044957217.358178547471204.302729824956623.56636026
Node Last Edited Time=Dec/18/2015 15:37:49
#Sta/Elev= 71 
 250.182  71.915 261.314  69.999 262.064  69.853  263.79  68.298 271.983  65.917
 275.653  65.097 279.973  63.899 285.704  62.497 288.428  62.208 296.733  61.495
 299.057   61.44 322.071  61.314 322.673  61.295 350.757   60.65 365.161  60.783
 369.547  60.645 382.296  60.209 408.284  59.982 422.001  59.901 441.232  59.218
 443.893  59.243 454.432  59.287 483.004   58.25 485.148   58.13  492.61  57.739
 514.953  57.119 547.468  56.151 573.489  55.058  577.87  54.896 588.102  55.016
 629.507  54.033 632.738  53.961 656.578  53.913 685.194  53.327 695.296  53.098
 705.073  52.272 713.584  52.984 720.345  53.478 723.723  53.774 735.614  54.713
 737.438  54.958  749.72  56.131 758.434  57.644 759.899  58.024   766.1  59.085
 766.982  59.222 774.316  61.607  781.82  61.741  788.92  61.929 794.983  62.393
 795.392  62.463  801.18  63.151 802.921  63.441  817.87  64.403 830.768  64.871
 847.723  65.248  859.97  65.788 866.974  66.184 871.384  66.238 874.323  66.355
 884.165  66.452 890.185  66.456 903.066  66.878 914.409  67.346 916.729  67.465
 927.154  68.478 937.472  69.271 941.468  69.613 948.006  70.717 952.464   71.59
 952.479  71.594
#Mann= 9 , 1 , 0 
 250.182    .023       0 477.035    .023       0 489.361    .023       0
 717.026    .023       0 731.998    .023       0 890.059    .023       0
 893.312    .023       0 952.464    .023       0 952.479    .023       0
Bank Sta=250.182,952.464
XS Rating Curve= 0 ,0
XS HTab Starting El and Incr=52.42,0.3, 66 
Exp/Cntr=0.3,0.1

Type RM Length L Ch R = 1 ,1143.37*,96.946,97.414,98.801
XS GIS Cut Line=2
7472038.080916814957140.577261797471263.839099394956544.61453421
Node Last Edited Time=Dec/18/2015 15:37:49
#Sta/Elev= 71 
 256.273  71.898 267.101  70.152 267.831  70.009 269.509  68.596 277.479  66.336
 281.049  65.542 285.252  64.258 290.827  62.836 293.476  62.495 301.554  61.707
 303.815  61.615 326.202  61.335 326.787  61.314 354.105  60.676 368.117   60.76
 372.383  60.627 384.785  60.189 410.063  59.884 423.407  59.782 442.113  59.132
 444.702  59.148 454.953  59.131 482.746  58.055 484.832  57.937  492.09  57.564
 513.824  56.937 545.452  55.926 570.764  54.835 575.025  54.683 584.978  54.773
 625.254  53.832 628.397  53.767 651.586  53.709 679.422  53.171 689.249  52.946
 698.759  52.193 707.377  52.901 714.222  53.356 717.642  53.628 729.682  54.427
 731.529  54.702 743.965  55.831 752.788  57.238 754.271  57.662  760.55   58.64
 761.443  58.758 768.868  60.846 776.467  60.932 783.656  61.106 789.794   61.71
 790.208  61.785 796.069  62.397 797.832  62.706 812.968  63.999 826.027  64.572
 843.194  64.967 855.594   65.49 862.686  65.921 867.151  66.018 870.127  66.204
 880.092  66.387 886.188  66.414  899.23  66.841 910.715  67.361 913.064  67.503
 923.619  68.565 934.066  69.302 938.113  69.639 944.732  70.676 949.245  71.562
 949.264  71.565
#Mann= 9 , 1 , 0 
 256.273    .023       0 480.119    .023       0 492.281    .023       0
 716.929    .023       0 731.703    .023       0 887.668    .023       0
 890.878    .023       0 949.245    .023       0 949.264    .023       0
Bank Sta=256.273,949.245
XS Rating Curve= 0 ,0
XS HTab Starting El and Incr=52.34,0.3, 66 
Exp/Cntr=0.3,0.1

Type RM Length L Ch R = 1 ,1143.27*,96.946,97.414,98.801
XS GIS Cut Line=2
7472092.264550084957063.796357087471323.375459634956465.66272053
Node Last Edited Time=Dec/18/2015 15:37:49
#Sta/Elev= 71 
 262.364  71.881 272.889  70.306 273.598  70.166 275.229  68.895 282.976  66.754
 286.446  65.987  290.53  64.617 295.949  63.174 298.524  62.782 306.376   61.92
 308.573  61.791 330.332  61.357 330.901  61.334 357.453  60.701 371.072  60.736
 375.219  60.608 387.273  60.168 411.843  59.786 424.812  59.662 442.994  59.046
  445.51  59.053 455.475  58.974 482.488   57.86 484.515  57.744  491.57  57.389
 512.694  56.755 543.437  55.702 568.038  54.612  572.18  54.471 581.854  54.531
 621.001  53.632 624.056  53.573 646.595  53.505 673.651  53.015 683.202  52.795
 692.445  52.114  701.17  52.818   708.1  53.235 711.562  53.482  723.75  54.141
 725.621  54.445  738.21  55.531 747.142  56.832 748.643  57.301     755  58.195
 755.904  58.294 763.421  60.085 771.113  60.123 778.391  60.282 784.605  61.027
 785.025  61.107 790.958  61.644 792.743  61.971 808.066  63.596 821.286  64.273
 838.665  64.686 851.219  65.193 858.399  65.658 862.919  65.799 865.931  66.054
 876.019  66.321  882.19  66.372 895.394  66.804  907.02  67.375 909.399  67.541
 920.084  68.652  930.66  69.333 934.757  69.665 941.458  70.634 946.027  71.533
 946.048  71.537
#Mann= 9 , 1 , 0 
 262.364    .023       0 483.203    .023       0 495.202    .023       0
 716.831    .023       0 731.407    .023       0 885.277    .023       0
 888.444    .023       0 946.027    .023       0 946.048    .023       0
Bank Sta=262.364,946.027
XS Rating Curve= 0 ,0
XS HTab Starting El and Incr=52.26,0.3, 66 
Exp/Cntr=0.3,0.1

Type RM Length L Ch R = 1 ,1143.17*,96.946,97.414,98.801
XS GIS Cut Line=2
7472146.448183364956987.015452367471382.911819884956386.71090684
Node Last Edited Time=Dec/18/2015 15:37:49
#Sta/Elev= 71 
 268.455  71.864 278.676  70.459 279.364  70.322 280.949  69.194 288.472  67.173
 291.842  66.432 295.809  64.976 301.071  63.513 303.572  63.069 311.197  62.132
 313.331  61.966 334.463  61.379 335.015  61.353 360.802  60.726 374.028  60.713
 378.055   60.59 389.761  60.148 413.622  59.688 426.218  59.543 443.876   58.96
 446.319  58.959 455.996  58.818  482.23  57.665 484.199   57.55  491.05  57.214
 511.565  56.573 541.421  55.477 565.313  54.389 569.335  54.259  578.73  54.289
 616.748  53.432 619.714  53.378 641.604  53.302 667.879  52.858 677.155  52.644
 686.132  52.035 694.963  52.736 701.977  53.114 705.482  53.336 717.819  53.855
 719.712  54.189 732.455  55.232 741.496  56.426 743.016  56.939  749.45   57.75
 750.365   57.83 757.974  59.324  765.76  59.314 773.127  59.459 779.417  60.343
 779.841  60.429 785.847  60.891 787.653  61.237 803.164  63.192 816.545  63.974
 834.136  64.405 846.843  64.895 854.111  65.394 858.686  65.579 861.735  65.903
 871.947  66.255 878.193   66.33 891.558  66.766 903.326   67.39 905.733  67.578
 916.549  68.739 927.255  69.364 931.401  69.692 938.184  70.592 942.809  71.504
 942.833  71.509
#Mann= 9 , 1 , 0 
 268.455    .023       0 486.287    .023       0 498.122    .023       0
 716.734    .023       0 731.111    .023       0 882.886    .023       0
  886.01    .023       0 942.809    .023       0 942.833    .023       0
Bank Sta=268.455,942.809
XS Rating Curve= 0 ,0
XS HTab Starting El and Incr=52.18,0.3, 66 
Exp/Cntr=0.3,0.1

Type RM Length L Ch R = 1 ,1143.08*,96.946,97.414,98.801
XS GIS Cut Line=2
7472200.631833614956910.234523597471442.448198774956307.75906842
Node Last Edited Time=Dec/18/2015 15:37:49
#Sta/Elev= 71 
 274.545  71.846 284.463  70.613 285.131  70.479 286.669  69.493 293.968  67.591
 297.238  66.876 301.087  65.335 306.193  63.851  308.62  63.356 316.019  62.345
 318.089  62.142 338.593  61.401 339.129  61.373  364.15  60.751 376.983   60.69
  380.89  60.572 392.249  60.128 415.402   59.59 427.623  59.424 444.757  58.873
 447.127  58.864 456.517  58.661 481.972  57.469 483.882  57.357  490.53  57.038
 510.436  56.391 539.405  55.253 562.587  54.166  566.49  54.047 575.606  54.047
 612.495  53.231 615.373  53.184 636.613  53.098 662.108  52.702 671.108  52.493
 679.818  51.955 688.756  52.653 695.855  52.993 699.401   53.19 711.888  53.569
 713.803  53.932   726.7  54.932  735.85   56.02 737.388  56.578   743.9  57.305
 744.826  57.366 752.527  58.562 760.407  58.505 767.862  58.636 774.228   59.66
 774.658  59.751 780.736  60.137 782.564  60.502 798.261  62.788 811.804  63.675
 829.608  64.125 842.468  64.598 849.823  65.131 854.453  65.359  857.54  65.753
 867.874  66.189 874.195  66.288 887.721  66.729 899.632  67.405 902.068  67.616
 913.014  68.826 923.849  69.395 928.045  69.718  934.91   70.55 939.591  71.476
 939.617  71.481
#Mann= 9 , 1 , 0 
 274.545    .023       0 489.371    .023       0 501.043    .023       0
 716.637    .023       0 730.815    .023       0 880.495    .023       0
 883.575    .023       0 939.591    .023       0 939.617    .023       0
Bank Sta=274.545,939.591
XS Rating Curve= 0 ,0
XS HTab Starting El and Incr=52.11,0.3, 67 
Exp/Cntr=0.3,0.1

Type RM Length L Ch R = 1 ,1142.98*,96.946,97.414,98.801
XS GIS Cut Line=2
7472254.815466894956833.453618877471501.984559024956228.80725474
Node Last Edited Time=Dec/18/2015 15:37:49
#Sta/Elev= 71 
 280.636  71.829 290.251  70.766 290.898  70.635 292.389  69.791 299.465   68.01
 302.635  67.321 306.366  65.694 311.316   64.19 313.668  63.643  320.84  62.557
 322.848  62.318 342.724  61.422 343.243  61.392 367.498  60.776 379.939  60.666
 383.726  60.553 394.738  60.107 417.182  59.492 429.029  59.304 445.638  58.787
 447.936  58.769 457.038  58.505 481.714  57.274 483.566  57.164  490.01  56.863
 509.307  56.208 537.389  55.028 559.862  53.943 563.646  53.835 572.482  53.805
 608.242  53.031 611.032  52.989 631.622  52.894 656.336  52.545 665.061  52.342
 673.505  51.876 682.549  52.571 689.732  52.872 693.321  53.044 705.956  53.283
 707.895  53.676 720.945  54.632 730.204  55.614 731.761  56.216  738.35   56.86
 739.287  56.902 747.079  57.801 755.053  57.696 762.598  57.813 769.039  58.977
 769.474  59.072 775.624  59.384 777.475  59.768 793.359  62.385 807.064  63.376
 825.079  63.844 838.092    64.3 845.535  64.868 850.221  65.139 853.344  65.602
 863.801  66.123 870.198  66.246 883.885  66.692 895.937   67.42 898.403  67.654
 909.479  68.913 920.443  69.426  924.69  69.744 931.636  70.508 936.373  71.447
 936.402  71.453
#Mann= 9 , 1 , 0 
 280.636    .023       0 492.455    .023       0 503.963    .023       0
 716.539    .023       0 730.519    .023       0 878.104    .023       0
 881.141    .023       0 936.373    .023       0 936.402    .023       0
Bank Sta=280.636,936.373
XS Rating Curve= 0 ,0
XS HTab Starting El and Incr=52.03,0.3, 67 
Exp/Cntr=0.3,0.1

Type RM Length L Ch R = 1 ,1142.88*,96.946,97.414,98.801
XS GIS Cut Line=2
7472308.999100174956756.672714157471561.520919264956149.85544105
Node Last Edited Time=Dec/18/2015 15:37:49
#Sta/Elev= 71 
 286.727  71.812 296.038   70.92 296.665  70.791 298.109   70.09 304.961  68.428
 308.031  67.766 311.644  66.053 316.438  64.528 318.716  63.929 325.662   62.77
 327.606  62.493 346.854  61.444 347.358  61.412 370.846  60.801 382.894  60.643
 386.562  60.535 397.226  60.087 418.961  59.394 430.434  59.185 446.519  58.701
 448.744  58.674 457.559  58.348 481.456  57.079 483.249   56.97 489.491  56.688
 508.178  56.026 535.373  54.804 557.136  53.719 560.801  53.622 569.359  53.563
 603.989  52.831 606.691  52.795  626.63   52.69 650.565  52.389 659.014  52.191
 667.191  51.797 676.341  52.488  683.61   52.75 687.241  52.898 700.024  52.998
 701.986  53.419  715.19  54.333 724.558  55.208 726.133  55.855   732.8  56.415
 733.748  56.437 741.632   57.04   749.7  56.887 757.333   56.99 763.851  58.294
 764.291  58.394 770.513   58.63 772.385  59.033 788.457  61.981 802.323  63.077
  820.55  63.563 833.717  64.003 841.247  64.605 845.988  64.919 849.148  65.452
 859.728  66.057 866.201  66.204 880.049  66.655 892.243  67.435 894.738  67.691
 905.945  68.999 917.037  69.457 921.334  69.771 928.362  70.466 933.155  71.418
 933.186  71.425
#Mann= 9 , 1 , 0 
 286.727    .023       0 495.538    .023       0 506.884    .023       0
 716.442    .023       0 730.224    .023       0 875.713    .023       0
 878.707    .023       0 933.155    .023       0 933.186    .023       0
Bank Sta=286.727,933.155
XS Rating Curve= 0 ,0
XS HTab Starting El and Incr=51.95,0.3, 67 
Exp/Cntr=0.3,0.1

Type RM Length L Ch R = 1 ,1142.79*,96.946,97.414,98.801
XS GIS Cut Line=2
7472363.182733454956679.891809437471621.057279514956070.90362737
Node Last Edited Time=Dec/18/2015 15:37:49
#Sta/Elev= 71 
 292.818  71.795 301.825  71.073 302.432  70.948 303.828  70.389 310.458  68.847
 313.427  68.211 316.923  66.412  321.56  64.867 323.764  64.216 330.483  62.982
 332.364  62.669 350.985  61.466 351.472  61.431 374.195  60.827  385.85  60.619
 389.398  60.517 399.714  60.067 420.741  59.296  431.84  59.065   447.4  58.615
 449.553   58.58  458.08  58.192 481.198  56.884 482.933  56.777 488.971  56.513
 507.048  55.844 533.357  54.579 554.411  53.496 557.956   53.41 566.235   53.32
 599.736  52.631  602.35  52.601 621.639  52.487 644.793  52.233 652.967  52.039
 660.877  51.718 670.134  52.405 677.487  52.629 681.161  52.752 694.093  52.712
 696.077  53.163 709.435  54.033 718.912  54.802 720.505  55.493  727.25   55.97
 728.209  55.973 736.185  56.279 744.347  56.078 752.069  56.166 758.662   57.61
 759.107  57.716 765.402  57.877 767.296  58.298 783.555  61.577 797.582  62.778
 816.021  63.282 829.341  63.705 836.959  64.342 841.755    64.7 844.952  65.301
 855.656  65.992 862.203  66.162 876.213  66.617 888.549   67.45 891.072  67.729
  902.41  69.086 913.632  69.488 917.978  69.797 925.088  70.424 929.936  71.389
 929.971  71.396
#Mann= 9 , 1 , 0 
 292.818    .023       0 498.622    .023       0 509.804    .023       0
 716.345    .023       0 729.928    .023       0 873.322    .023       0
 876.273    .023       0 929.936    .023       0 929.971    .023       0
Bank Sta=292.818,929.936
XS Rating Curve= 0 ,0
XS HTab Starting El and Incr=51.87,0.3, 67 
Exp/Cntr=0.3,0.1

Type RM Length L Ch R = 1 ,1142.69*,96.946,97.414,98.801
XS GIS Cut Line=2
7472417.366366724956603.110904727471680.593639754955991.95181368
Node Last Edited Time=Dec/18/2015 15:37:49
#Sta/Elev= 71 
 298.909  71.777 307.613  71.227 308.199  71.104 309.548  70.688 315.954  69.265
 318.824  68.655 322.202  66.771 326.682  65.205 328.812  64.503 335.305  63.195
 337.122  62.844 355.115  61.488 355.586  61.451 377.543  60.852 388.805  60.596
 392.234  60.498 402.202  60.046  422.52  59.198 433.245  58.946 448.281  58.529
 450.361  58.485 458.601  58.036  480.94  56.689 482.616  56.583 488.451  56.337
 505.919  55.662 531.341  54.355 551.685  53.273 555.111  53.198 563.111  53.078
 595.483   52.43 598.009  52.406 616.648  52.283 639.022  52.076  646.92  51.888
 654.564  51.639 663.927  52.323 671.365  52.508  675.08  52.606 688.161  52.426
 690.169  52.907  703.68  53.734 713.266  54.396 714.878  55.132   721.7  55.525
  722.67  55.509 730.738  55.517 738.993  55.269 746.805  55.343 753.474  56.927
 753.924  57.038 760.291  57.123 762.207  57.564 778.652  61.174 792.841  62.479
 811.493  63.001 824.966  63.408 832.671  64.079 837.523   64.48 840.756  65.151
 851.583  65.926 858.206   66.12 872.376   66.58 884.854  67.465 887.407  67.766
 898.875  69.173 910.226  69.519 914.622  69.823 921.814  70.382 926.718  71.361
 926.755  71.368
#Mann= 9 , 1 , 0 
 298.909    .023       0 501.706    .023       0 512.725    .023       0
 716.247    .023       0 729.632    .023       0 870.931    .023       0
 873.839    .023       0 926.718    .023       0 926.755    .023       0
Bank Sta=298.909,926.718
XS Rating Curve= 0 ,0
XS HTab Starting El and Incr=51.79,0.3, 67 
Exp/Cntr=0.3,0.1

Type RM Length L Ch R = 1 ,1142.600,82.659,93.543,108.116
BEGIN DESCRIPTION:
00048 D-114
END DESCRIPTION:
XS GIS Cut Line=2
      7472471.55      4956526.33      7471740.13        4955913.
Node Last Edited Time=Dec/18/2015 15:37:49
#Sta/Elev= 40 
     305   71.76   313.4   71.38  324.22    69.1  327.48   67.13  333.86   64.79
  341.88   63.02   359.7   61.47  395.07   60.48   424.3    59.1  451.17   58.39
   482.3   56.39  504.79   55.48  548.96   53.05  591.23   52.23  633.25   51.92
  648.25   51.56  657.72   52.24     669   52.46  682.23   52.14  684.26   52.65
  707.62   53.99  709.25   54.77  716.15   55.08  733.64   54.46  741.54   54.52
  748.74   56.36  755.18   56.37  773.75   60.77   788.1   62.18  820.59   63.11
  833.29   64.26  836.56      65  847.51   65.86  868.5466.54305  881.16   67.48
  895.34   69.26  906.82   69.55  918.54   70.34   923.5  71.332  923.54   71.34
#Mann= 4 ,-1 , 0 
     305    .023       0  504.79    .023       0  716.15    .023       0
  868.54    .023       0
Bank Sta=305,923.5
XS Rating Curve= 0 ,0
XS HTab Starting El and Incr=51.71,0.3, 67 
Exp/Cntr=0.3,0.1

Type RM Length L Ch R = 1 ,1142.51*,82.659,93.543,108.116
XS GIS Cut Line=2
      7472525.06   4956481.66625   7471826.20125   4955846.82125
Node Last Edited Time=Dec/18/2015 15:37:49
#Sta/Elev= 71 
 297.375  71.714 305.478  71.367 308.135  70.855 315.916   69.27  319.06  67.507
 324.839  65.512 325.215  65.366 328.686  64.474 332.951  63.537 339.876  62.855
 350.142  61.945 379.606  60.908 384.261  60.784 412.458  59.537 417.669  59.405
 438.378   58.84 468.408   56.99 468.805  56.974 490.103  56.048 529.126  53.835
 532.712  53.627 573.488   52.58 581.849  52.457 597.854  52.249 614.023  52.106
 628.492  51.759 638.566  52.376 639.243  52.388 643.991  52.637 650.565  52.745
 652.769  52.702 662.146  52.837 664.638  52.832 666.798  53.317 678.765  54.095
 682.323  54.016 689.171  54.069 691.647  54.187 693.381  54.869 700.721  55.142
 703.859  55.051 712.278  54.918 717.287  54.528 719.325  54.468 727.729  54.517
 735.388  56.124 742.238   56.13 745.185  56.703  759.19  59.509 761.992  60.134
 767.222  60.705 777.257  61.713 778.183  61.753 801.495  62.498 811.818  62.609
 813.549  62.715 824.877   63.64 825.327  63.687 828.806  64.436 840.454   65.53
 844.216  65.741  854.98  66.181 862.824  66.441 876.249  67.347  886.07  68.425
 888.402  68.682 891.333  69.039 903.544  69.519 916.011  70.441 921.287  71.407
 921.324  71.414
#Mann= 9 , 1 , 0 
 297.375    .023       0 498.913    .023       0 507.995    .023       0
 712.123    .023       0 715.117    .023       0 865.846    .023       0
 874.159    .023       0 921.287    .023       0 921.324    .023       0
Bank Sta=297.375,921.287
XS Rating Curve= 0 ,0
XS HTab Starting El and Incr=51.91,0.3, 67 
Exp/Cntr=0.3,0.1

Type RM Length L Ch R = 1 ,1142.42*,82.659,93.543,108.116
XS GIS Cut Line=2
      7472578.57    4956437.0025    7471912.2725    4955780.6425
Node Last Edited Time=Dec/18/2015 15:37:49
#Sta/Elev= 71 
  289.75  71.668 297.556  71.354 300.115   70.91 307.611  69.441 310.641  67.884
 316.208  66.092  316.57  65.942 319.914  64.952 324.023  64.053 330.694  63.314
 340.583  62.419 368.968  61.201 373.453  61.087 400.616  59.974 405.636  59.853
 425.587   59.29 454.516   57.59 454.898  57.575 475.416  56.615  513.01  54.416
 516.464  54.205 555.746   52.93 563.801  52.747 579.219  52.455 594.795  52.291
 608.735  51.958 619.412  52.512  620.13  52.524 625.163  52.935  632.13  53.031
 634.467  52.995 644.405  53.478 647.047  53.524 649.336  53.983  662.02  54.894
 665.791  54.545 673.049  54.282 675.674  54.383 677.512  54.969 685.291  55.204
 688.618  55.127 697.541  55.141  702.85  54.528 705.011  54.476 713.918  54.514
 722.036  55.888 729.297   55.89  732.42   56.38 747.265  58.872 750.234  59.499
 755.777  60.157 766.414  61.246 767.396  61.301 792.104  62.164 803.046  62.107
 804.881  62.173 816.888  63.059 817.365  63.114 821.052  63.873 833.397    65.2
 837.385  65.506 848.795  66.058 857.108  66.339 871.337  67.215 881.747  68.211
 884.219  68.451 887.325  68.818 900.269  69.488 913.483  70.542 919.075  71.481
 919.107  71.487
#Mann= 9 , 1 , 0 
  289.75    .023       0 493.037    .023       0 502.197    .023       0
 708.096    .023       0 711.116    .023       0 863.153    .023       0
 871.538    .023       0 919.075    .023       0 919.107    .023       0
Bank Sta=289.75,919.075
XS Rating Curve= 0 ,0
XS HTab Starting El and Incr=52.11,0.3, 66 
Exp/Cntr=0.3,0.1

Type RM Length L Ch R = 1 ,1142.33*,82.659,93.543,108.116
XS GIS Cut Line=2
7472632.079995644956392.338753647471998.34374298 4955714.4637554
Node Last Edited Time=Dec/18/2015 15:37:49
#Sta/Elev= 71 
 282.125  71.621 289.634  71.341 292.096  70.965 299.307  69.611 302.221  68.262
 307.577  66.672 307.925  66.518 311.141   65.43 315.094   64.57 321.511  63.774
 331.025  62.894  358.33  61.494 362.644  61.391 388.775  60.412 393.603  60.301
 412.795   59.74 440.624   58.19 440.992  58.176  460.73  57.183 496.893  54.997
 500.216  54.782 538.004   53.28 545.752  53.038 560.584  52.661 575.568  52.477
 588.977  52.156 600.258  52.648 601.016   52.66 606.334  53.232 613.695  53.316
 616.164  53.287 626.664  54.118 629.455  54.216 631.874   54.65 645.275  55.693
 649.259  55.075 656.928  54.495 659.701   54.58 661.642  55.068 669.862  55.266
 673.377  55.202 682.804  55.364 688.414  54.529 690.696  54.484 700.107  54.511
 708.684  55.652 716.355   55.65 719.655  56.056 735.339  58.235 738.476  58.863
 744.333  59.609  755.57  60.779 756.608  60.849 782.714   61.83 794.273  61.606
 796.212  61.631 808.898  62.477 809.402  62.541 813.297  63.309 826.341   64.87
 830.554  65.272 842.609  65.935 851.393  66.236 866.426  67.082 877.424  67.997
 880.035  68.219 883.318  68.598 896.993  69.457 910.954  70.643 916.862  71.556
 916.891  71.561
#Mann= 9 , 1 , 0 
 282.125    .023       0  487.16    .023       0 496.399    .023       0
 704.069    .023       0 707.115    .023       0  860.46    .023       0
 868.917    .023       0 916.862    .023       0 916.891    .023       0
Bank Sta=282.125,916.862
XS Rating Curve= 0 ,0
XS HTab Starting El and Incr=52.31,0.3, 66 
Exp/Cntr=0.3,0.1

Type RM Length L Ch R = 1 ,1142.24*,82.659,93.543,108.116
XS GIS Cut Line=2
      7472685.59     4956347.675     7472084.415     4955648.285
Node Last Edited Time=Dec/18/2015 15:37:49
#Sta/Elev= 71 
   274.5  71.575 281.712  71.329 284.077   71.02 291.003  69.781 293.802  68.639
 298.945  67.251  299.28  67.095 302.369  65.908 306.166  65.086 312.329  64.233
 321.466  63.368 347.692  61.788 351.836  61.694 376.933  60.849 381.571  60.749
 400.004   60.19 426.733   58.79 427.085  58.777 446.043  57.751 480.776  55.577
 483.968  55.359 520.262   53.63 527.704  53.328  541.95  52.867 556.341  52.663
  569.22  52.355 581.104  52.784 581.903  52.796 587.505   53.53 595.261  53.601
 597.861   53.58 608.924  54.758 611.864  54.908 614.411  55.317  628.53  56.493
 632.727  55.604 640.806  54.708 643.727  54.777 645.773  55.168 654.432  55.328
 658.135  55.278 668.067  55.587 673.977  54.529 676.382  54.492 686.296  54.508
 695.332  55.416 703.414   55.41  706.89  55.733 723.413  57.598 726.719  58.227
 732.888  59.062 744.727  60.312 745.821  60.397 773.323  61.496 785.501  61.104
 787.544  61.089 800.909  61.896 801.439  61.968 805.543  62.745 819.285  64.539
 823.723  65.037 836.423  65.812 845.677  66.134 861.515   66.95 873.101  67.783
 875.852  67.987  879.31  68.377 893.717  69.426 908.425  70.744  914.65  71.631
 914.675  71.635
#Mann= 9 , 1 , 0 
   274.5    .023       0 481.283    .023       0 490.601    .023       0
 700.042    .023       0 703.114    .023       0 857.766    .023       0
 866.295    .023       0  914.65    .023       0 914.675    .023       0
Bank Sta=274.5,914.65
XS Rating Curve= 0 ,0
XS HTab Starting El and Incr=52.5,0.3, 65 
Exp/Cntr=0.3,0.1

Type RM Length L Ch R = 1 ,1142.15*,82.659,93.543,108.116
XS GIS Cut Line=2
7472739.100004364956303.011246367472170.48625702 4955582.1062446
Node Last Edited Time=Dec/18/2015 15:37:49
#Sta/Elev= 71 
 266.875  71.529  273.79  71.316 276.058  71.075 282.698  69.951 285.382  69.016
 290.314  67.831 290.635  67.671 293.597  66.386 297.237  65.603 303.147  64.692
 311.908  63.843 337.054  62.081 341.027  61.998 365.091  61.286 369.538  61.196
 387.212   60.64 412.841   59.39 413.179  59.378 431.356  58.319  464.66  56.158
  467.72  55.936  502.52   53.98 509.655  53.619 523.315  53.073 537.113  52.848
 549.463  52.554 561.951   52.92  562.79  52.932 568.676  53.827 576.826  53.887
 579.558  53.872 591.183  55.399 594.272    55.6 596.949  55.983 611.785  57.292
 616.195  56.133 624.685  54.921 627.754  54.973 629.904  55.267 639.003   55.39
 642.894  55.353 653.331  55.811  659.54  54.529 662.067    54.5 672.485  54.505
  681.98   55.18 690.472   55.17 694.125   55.41 711.487  56.961 714.961  57.592
 721.444  58.514 733.884  59.845 735.033  59.946 763.932  61.162 776.729  60.603
 778.875  60.547 792.919  61.314 793.477  61.395 797.789  62.181 812.229  64.209
 816.893  64.803 830.237  65.689 839.961  66.032 856.603  66.817 868.779  67.569
 871.669  67.755 875.303  68.156 890.441  69.395 905.897  70.845 912.438  71.705
 912.459  71.709
#Mann= 9 , 1 , 0 
 266.875    .023       0 475.407    .023       0 484.804    .023       0
 696.015    .023       0 699.113    .023       0 855.073    .023       0
 863.674    .023       0 912.438    .023       0 912.459    .023       0
Bank Sta=266.875,912.438
XS Rating Curve= 0 ,0
XS HTab Starting El and Incr=52.7,0.3, 64 
Exp/Cntr=0.3,0.1

Type RM Length L Ch R = 1 ,1142.06*,82.659,93.543,108.116
XS GIS Cut Line=2
7472792.609991274956258.347507297472256.55748596 4955515.9275108
Node Last Edited Time=Dec/18/2015 15:37:49
#Sta/Elev= 71 
  259.25  71.482 265.869  71.303 268.039   71.13 274.394  70.122 276.963  69.393
 281.683  68.411 281.989  68.247 284.825  66.864 288.309   66.12 293.965  65.151
 302.349  64.317 326.416  62.374 330.218  62.301 353.249  61.723 357.505  61.644
 374.421  61.089 398.949   59.99 399.273  59.978 416.669  58.886 448.543  56.739
 451.472  56.514 484.778  54.331 491.607  53.909  504.68  53.278 517.886  53.034
 529.705  52.753 542.797  53.056 543.677  53.068 549.848  54.125 558.391  54.172