Geom Title=Test 1 - Pancevo-Grocka - Q=2000m3/s
Program Version=4.00
Viewing Rectangle= 7469155.78 , 7478743.64 , 4962125.96 , 4948522.73 

River Reach=Dunav           ,D4-Pancevo-Grock
Reach XY= 16 
 7471410.28733984961923.44768469     7471390.403      4961860.95
     7471158.504     4961165.648     7470874.231      4960545.12
     7470713.169     4959710.112     7470777.043     4958664.617
     7471141.585     4957379.074     7471522.048     4956737.419
     7472432.398     4955782.667      7473846.24     4955064.943
     7474915.973      4954033.21     7475822.724     4952405.649
     7476368.804     4951478.593     7477229.084     4950357.144
     7478345.098     4948821.185     7478395.827     4948776.758
Rch Text X Y=7476988.0890583,4957188.8107977
Reverse River Text= 0 

Type RM Length L Ch R = 1 ,1148.440,97.149,99.859,106.281
BEGIN DESCRIPTION:
00042 D-118
END DESCRIPTION:
XS GIS Cut Line=2
      7471976.72      4961609.94      7469249.78      4961992.59
Node Last Edited Time=Dec/18/2015 13:33:17
#Sta/Elev= 25 
     368    71.5   379.8   69.59  394.54   66.31  471.21    61.2   559.5    59.7
  596.36   58.88  621.28   57.47   634.3   57.35   646.4   56.23  664.41   55.46
  686.07   54.05  692.66   54.18  712.38   52.88  735.79   52.19  752.95   50.79
  782.89   50.33  797.05   50.81  842.51   51.09  886.6753.67911  900.11   55.41
  903.17   57.76  910.48   60.23  932.05   65.62  936.13   69.26   945.7    71.2
#Mann= 4 ,-1 , 0 
     368    .023       0   559.5    .023       0  752.95    .023       0
  886.67    .023       0
Bank Sta=368,945.7
XS Rating Curve= 0 ,0
XS HTab Starting El and Incr=50.48,0.3, 70 
Exp/Cntr=0.3,0.1

Type RM Length L Ch R = 1 ,1148.34*,97.149,99.859,106.281
XS GIS Cut Line=2
7471965.67777778      4961513.947469266.626666674961890.76222222
Node Last Edited Time=Dec/18/2015 13:33:17
#Sta/Elev= 62 
 376.889  71.521 388.371   69.72 389.198  69.501 389.372  69.473 395.548  68.162
 403.705   66.31 404.966  66.065 430.452  64.456 452.505  63.232 459.897  62.759
 486.076  61.338 489.878   61.29 506.819  61.026 523.294  60.814 563.637  60.183
 579.479  59.915 582.824  59.844 591.837  59.616 618.473  59.049 623.779  58.783
 634.176  58.192 644.837  57.673 648.843  57.638  649.42  57.581 658.611  57.467
 671.411  56.413 688.073  55.737 690.464  55.649 701.704  55.026 705.244  54.785
 713.379  54.315 720.223  54.408  720.35   54.41 741.212  53.246 741.636  53.235
 753.758  52.956 765.978  52.663 775.463  52.021 784.132  51.406 788.308  51.342
 794.476  51.315 804.727  51.125 815.806  50.967 830.062  51.424 836.802  51.476
 850.312  51.703   853.5  51.842 866.536  51.965 875.831  52.095   883.3  52.546
 914.068  54.355 920.291  54.749  926.99  55.589 933.822  56.468 936.903  58.603
 944.263  60.908 952.502  62.849  959.58  64.636 965.979  66.123 968.299  67.977
 970.087  69.394 979.722  71.166
#Mann= 8 , 1 , 0 
 376.889    .023       0  576.72    .023       0 578.256    .023       0
 778.586    .023       0  783.26    .023       0 918.124    .023       0
  927.83    .023       0 979.722    .023       0
Bank Sta=376.889,979.722
XS Rating Curve= 0 ,0
XS HTab Starting El and Incr=51.12,0.3, 68 
Exp/Cntr=0.3,0.1

Type RM Length L Ch R = 1 ,1148.24*,97.149,99.859,106.281
XS GIS Cut Line=2
7471954.63555556      4961417.947469283.473333334961788.93444444
Node Last Edited Time=Dec/18/2015 13:33:17
#Sta/Elev= 62 
 385.778  71.542 397.888  69.696 398.761  69.386 398.944  69.357 405.458  68.033
 414.062  66.045 415.392  65.821 442.273  64.208 465.533  63.149  473.33  62.669
 500.942  61.476 504.952  61.441  522.82  61.185 540.197  61.026 582.749  60.411
 599.458  60.131 602.986  60.059 612.493  59.791 640.587  59.218 646.183   58.97
 657.149  58.345 668.393  57.877 672.619  57.841 673.228  57.732 682.921  57.585
 696.423  56.595 713.996  55.917 716.518  55.839 728.373  55.284 732.107  55.019
 740.687  54.581 747.907  54.638  748.04   54.64 770.044  53.611 770.492  53.602
 783.277  53.381 796.166  53.137  806.17  52.583 815.313  52.021 819.718  51.954
 826.224  51.991 837.036   51.76 848.721  51.603 863.074  52.039 869.859    52.1
  883.46  52.473  886.67   52.73 899.794  52.897 909.152    53.1 916.671  53.566
 947.647  55.394 953.912   55.82 960.656  56.641 967.535  57.525 970.636  59.445
 978.046  61.586 986.341  63.423 993.466   65.24 999.909  66.6261002.244  68.279
1004.044  69.5291013.744  71.131
#Mann= 8 , 1 , 0 
 385.778    .023       0 593.941    .023       0  595.54    .023       0
 804.223    .023       0 809.091    .023       0 949.578    .023       0
 959.689    .023       01013.744    .023       0
Bank Sta=385.778,1013.744
XS Rating Curve= 0 ,0
XS HTab Starting El and Incr=51.75,0.3, 66 
Exp/Cntr=0.3,0.1

Type RM Length L Ch R = 1 ,1148.14*,97.149,99.859,106.281
XS GIS Cut Line=2
7471943.59333333      4961321.94      7469300.324961687.10666667
Node Last Edited Time=Dec/18/2015 13:33:17
#Sta/Elev= 62 
 394.667  71.563 407.406  69.672 408.324  69.271 408.517   69.24 415.368  67.904
 424.419   65.78 425.818  65.576 454.094   63.96 478.561  63.067 486.763   62.58
 515.808  61.614 520.026  61.593 538.822  61.345 557.101  61.238  601.86   60.64
 619.437  60.346 623.148  60.273 633.148  59.967   662.7  59.388 668.587  59.157
 680.122  58.497  691.95   58.08 696.395  58.043 697.035  57.883 707.232  57.702
 721.434  56.778  739.92  56.098 742.573  56.028 755.043  55.542  758.97  55.254
 767.996  54.846  775.59  54.868 775.731   54.87 798.877  53.977 799.347  53.969
 812.796  53.807 826.354   53.61 836.877  53.146 846.495  52.637 851.128  52.566
 857.972  52.667 869.345  52.394 881.637   52.24 896.085  52.653 902.916  52.724
 916.609  53.243  919.84  53.619 933.052  53.829 942.472  54.105 950.043  54.587
 981.226  56.432 987.533   56.89 994.323  57.6941001.247  58.5831004.369  60.288
1011.828  62.2641020.179  63.9971027.353  65.8441033.838  67.1281036.189   68.58
1038.001  69.6631047.767  71.097
#Mann= 8 , 1 , 0 
 394.667    .023       0 611.161    .023       0 612.824    .023       0
 829.859    .023       0 834.922    .023       0 981.032    .023       0
 991.548    .023       01047.767    .023       0
Bank Sta=394.667,1047.767
XS Rating Curve= 0 ,0
XS HTab Starting El and Incr=52.39,0.3, 64 
Exp/Cntr=0.3,0.1

Type RM Length L Ch R = 1 ,1148.04*,97.149,99.859,106.281
XS GIS Cut Line=2
7471932.55111111      4961225.947469317.166666674961585.27888889
Node Last Edited Time=Dec/18/2015 13:33:17
#Sta/Elev= 62 
 403.556  71.584 416.923  69.648 417.886  69.156 418.089  69.123 425.279  67.775
 434.776  65.515 436.243  65.332 465.915  63.711 491.589  62.984 500.196   62.49
 530.673  61.752   535.1  61.744 554.823  61.504 574.004   61.45 620.972  60.868
 639.415  60.562  643.31  60.488 653.803  60.142 684.814  59.557 690.991  59.345
 703.095  58.649 715.506  58.284 720.171  58.246 720.843  58.034 731.542   57.82
 746.445  56.961 765.843  56.278 768.627  56.217 781.712    55.8 785.833  55.488
 795.305  55.111 803.273  55.099 803.421    55.1 827.709  54.343 828.203  54.336
 842.315  54.232 856.542  54.083 867.584  53.708 877.677  53.253 882.539  53.179
  889.72  53.342 901.654  53.028 914.552  52.877 929.097  53.267 935.974  53.348
 949.757  54.012  953.01  54.507  966.31  54.761 975.793   55.11 983.414  55.607
1014.805  57.4711021.154   57.961027.989  58.7471034.959   59.641038.103   61.13
1045.611  62.9421054.018  64.5711061.239  66.4491067.768  67.6311070.135  68.882
1071.959  69.7971081.789  71.062
#Mann= 8 , 1 , 0 
 403.556    .023       0 628.381    .023       0 630.109    .023       0
 855.496    .023       0 860.753    .023       01012.486    .023       0
1023.406    .023       01081.789    .023       0
Bank Sta=403.556,1081.789
XS Rating Curve= 0 ,0
XS HTab Starting El and Incr=53.03,0.3, 62 
Exp/Cntr=0.3,0.1

Type RM Length L Ch R = 1 ,1147.94*,97.149,99.859,106.281
XS GIS Cut Line=2
7471921.50888889      4961129.947469334.013333334961483.45111111
Node Last Edited Time=Dec/18/2015 13:33:17
#Sta/Elev= 62 
 412.444  71.606  426.44  69.625 427.449  69.041 427.661  69.007 435.189  67.646
 445.133   65.25 446.669  65.087 477.736  63.463 504.617  62.901 513.629    62.4
 545.539   61.89 550.174  61.895 570.825  61.663 590.907  61.662 640.083  61.096
 659.394  60.777 663.472  60.702 674.459  60.318 706.927  59.726 713.395  59.532
 726.068  58.801 739.063  58.487 743.946  58.449  744.65  58.186 755.853  57.937
 771.456  57.143 791.767  56.459 794.681  56.407 808.382  56.058 812.697  55.722
 822.613  55.376 830.957  55.329 831.111   55.33 856.541  54.709 857.058  54.703
 871.834  54.658  886.73  54.557 898.291   54.27 908.859  53.868 913.949  53.791
 921.468  54.018 933.964  53.663 947.468  53.513 962.109  53.881 969.031  53.973
 982.906  54.782  986.18  55.396 999.568  55.6931009.114  56.1151016.785  56.628
1048.384  58.5091054.775  59.0311061.655  59.7991068.672  60.6981071.836  61.973
1079.394   63.621087.856  65.1441095.125  67.0531101.697  68.134 1104.08  69.184
1105.916  69.9311115.811  71.028
#Mann= 8 , 1 , 0 
 412.444    .023       0 645.601    .023       0 647.393    .023       0
 881.132    .023       0 886.585    .023       0 1043.94    .023       0
1055.265    .023       01115.811    .023       0
Bank Sta=412.444,1115.811
XS Rating Curve= 0 ,0
XS HTab Starting El and Incr=53.66,0.3, 60 
Exp/Cntr=0.3,0.1

Type RM Length L Ch R = 1 ,1147.84*,97.149,99.859,106.281
XS GIS Cut Line=2
7471910.46666667      4961033.94      7469350.864961381.62333333
Node Last Edited Time=Dec/18/2015 13:33:17
#Sta/Elev= 62 
 421.333  71.627 435.958  69.601 437.012  68.926 437.233   68.89 445.099  67.517
 455.489  64.985 457.095  64.843 489.557  63.215 517.646  62.818 527.061   62.31
 560.405  62.028 565.248  62.046 586.826  61.822  607.81  61.874 659.195  61.325
 679.373  60.992 683.634  60.917 695.114  60.493 729.041  59.895 735.798  59.719
 749.041  58.953 762.619  58.691 767.722  58.652 768.458  58.337 780.163  58.055
 796.468  57.326  817.69  56.639 820.736  56.596 835.051  56.316  839.56  55.957
 849.922  55.642  858.64  55.559 858.801   55.56 885.374  55.074 885.914  55.069
 901.353  55.083 916.918   55.03 928.999  54.833  940.04  54.484 945.359  54.403
 953.216  54.693 966.273  54.297 980.383   54.15 995.121  54.4961002.088  54.597
1016.054  55.551 1019.35  56.2841032.826  56.6241042.435   57.121050.156  57.648
1081.963  59.5481088.396  60.1011095.321  60.8521102.384  61.7561105.569  62.815
1113.177  64.2981121.695  65.7181129.011  67.6571135.627  68.6371138.025  69.485
1139.873  70.0661149.833  70.993
#Mann= 8 , 1 , 0 
 421.333    .023       0 662.822    .023       0 664.677    .023       0
 906.769    .023       0 912.416    .023       01075.394    .023       0
1087.124    .023       01149.833    .023       0
Bank Sta=421.333,1149.833
XS Rating Curve= 0 ,0
XS HTab Starting El and Incr=54.3,0.3, 58 
Exp/Cntr=0.3,0.1

Type RM Length L Ch R = 1 ,1147.74*,97.149,99.859,106.281
XS GIS Cut Line=2
7471899.42444444      4960937.947469367.706666674961279.79555556
Node Last Edited Time=Dec/18/2015 13:33:17
#Sta/Elev= 62 
 430.222  71.648 445.475  69.577 446.575   68.81 446.806  68.774 455.009  67.388
 465.846   64.72 467.521  64.598 501.378  62.967 530.674  62.736 540.494   62.22
 575.271  62.166 580.322  62.198 602.827  61.982 624.714  62.086 678.307  61.553
 699.352  61.208 703.796  61.131 715.769  60.669 751.154  60.064 758.202  59.906
 772.014  59.106 786.176  58.894 791.498  58.854 792.265  58.488 804.474  58.172
 821.479  57.509 843.613  56.819  846.79  56.785 861.721  56.574 866.423  56.191
  877.23  55.907 886.323  55.789 886.492   55.79 914.206   55.44 914.769  55.436
 930.872  55.509 947.106  55.503 959.706  55.395 971.222    55.1 976.769  55.015
 984.964  55.369 998.582  54.9311013.299  54.7871028.133   55.111035.145  55.221
1049.203  56.321 1052.52  57.1731066.084  57.5561075.756  58.1251083.528  58.669
1115.542  60.5861122.017  61.1711128.988  61.9051136.096  62.8131139.302  63.658
 1146.96  64.9761155.533  66.2921162.898  68.2611169.556   69.14 1171.97  69.787
 1173.83    70.21183.856  70.959
#Mann= 8 , 1 , 0 
 430.222    .023       0 680.042    .023       0 681.961    .023       0
 932.405    .023       0 938.247    .023       01106.849    .023       0
1118.982    .023       01183.856    .023       0
Bank Sta=430.222,1183.856
XS Rating Curve= 0 ,0
XS HTab Starting El and Incr=54.94,0.3, 56 
Exp/Cntr=0.3,0.1

Type RM Length L Ch R = 1 ,1147.64*,97.149,99.859,106.281
XS GIS Cut Line=2
7471888.38222222      4960841.947469384.553333334961177.96777778
Node Last Edited Time=Dec/18/2015 13:33:17
#Sta/Elev= 62 
 439.111  71.669 454.993  69.554 456.137  68.695 456.378  68.657  464.92  67.259
 476.203  64.455 477.947  64.354 513.199  62.718 543.702  62.653 553.927   62.13
 590.137  62.304 595.396  62.349 618.829  62.141 641.617  62.298 697.418  61.782
 719.331  61.423 723.958  61.346 736.425  60.844 773.267  60.234 780.606  60.093
 794.987  59.258 809.733  59.098 815.274  59.057 816.073  58.639 828.785   58.29
  846.49  57.691 869.537      57 872.844  56.975  888.39  56.832 893.287  56.426
 904.539  56.172 914.007   56.02 914.182   56.02 943.038  55.806 943.625  55.803
 960.391  55.934 977.294  55.977 990.413  55.9581002.404  55.715 1008.18  55.628
1016.712  56.0441030.891  55.5661046.214  55.4231061.144  55.7241068.203  55.846
1082.351   57.09 1085.69  58.0611099.342  58.4881109.077   59.131116.899  59.689
1149.121  61.6251155.638  62.2411162.654  62.9571169.809  63.8711173.035    64.5
1180.743  65.6541189.371  66.8661196.784  68.8661203.485  69.6421205.915  70.088
1207.787  70.3341217.878  70.924
#Mann= 8 , 1 , 0 
 439.111    .023       0 697.262    .023       0 699.246    .023       0
 958.042    .023       0 964.079    .023       01138.302    .023       0
1150.841    .023       01217.878    .023       0
Bank Sta=439.111,1217.878
XS Rating Curve= 0 ,0
XS HTab Starting El and Incr=55.57,0.3, 54 
Exp/Cntr=0.3,0.1

Type RM Length L Ch R = 1 ,1147.550,86.883,96.169,101.77
BEGIN DESCRIPTION:
00043 D-117
END DESCRIPTION:
XS GIS Cut Line=2
      7471877.34      4960745.94       7469401.4      4961076.14
Node Last Edited Time=Dec/18/2015 13:33:17
#Sta/Elev= 40 
     448   71.69  464.51   69.53   465.7   68.58  474.83   67.13  486.56   64.19
  525.02   62.47  556.73   62.57  567.36   62.04  610.47    62.5  634.83    62.3
  658.52   62.51  716.53   62.01  744.12   61.56  757.08   61.02  803.01   60.28
  817.96   59.41  839.05   59.26  839.88   58.79  895.46   57.18  915.06   57.09
  920.15   56.66  941.69   56.25  972.48   56.17  989.91   56.36 1021.12   56.52
 1039.59   56.24 1048.46   56.72  1063.2    56.2 1079.13   56.06 1101.26   56.47
  1115.5   57.86 1118.86   58.95  1132.6   59.42 1150.27   60.71  1182.762.66315
 1196.32   64.01 1223.21   67.44 1230.67   69.47 1239.86   70.39  1251.9   70.89
#Mann= 4 ,-1 , 0 
     448    .023       0  716.53    .023       0  989.91    .023       0
  1182.7    .023       0
Bank Sta=448,1251.9
XS Rating Curve= 0 ,0
XS HTab Starting El and Incr=56.21,0.3, 52 
Exp/Cntr=0.3,0.1

Type RM Length L Ch R = 1 ,1147.46*,86.883,96.169,101.77
XS GIS Cut Line=2
7471872.927000074960668.071001247469421.848999684960959.89900184
Node Last Edited Time=Dec/18/2015 13:33:17
#Sta/Elev= 82 
   462.4  71.719 479.101  69.551 480.304   68.68 480.328  68.677 486.368  67.558
  489.54  67.056 493.867  66.018 499.844  64.491 501.405  64.129 519.522  63.249
 540.309  62.378 542.556  62.379 551.624  62.464 562.797  62.447 572.385  62.492
 583.138  62.035 585.123  62.058 607.486  62.284 626.746  62.493 651.387  62.346
 675.351  62.567 683.098  62.518 691.904  62.419 709.324  62.324 732.639  62.121
  734.03   62.11 761.939  61.704 775.049  61.217 782.579  61.109 815.697  60.607
 821.509  60.512 836.632  59.699 847.754  59.606 857.965  59.574 858.273   59.42
 858.805  59.149 870.189  58.797 903.778  57.926  910.28  57.724 915.026  57.611
 925.125  57.589 934.853  57.527 940.001  57.128 944.033  57.051  961.79  56.739
 976.353  56.696     983  56.709 992.936   56.651002.361  56.7061010.567  56.782
1042.137  56.9121046.461  56.8521060.417  56.712 1060.82  56.7061069.793  57.105
1076.858  56.8571084.703    56.6 1096.02  56.4971100.817  56.427 1124.41  56.799
1136.661  57.8091139.592  58.0631143.174  59.0591153.874  59.4131157.822  59.583
1159.136  59.6821166.639  60.1211176.661  60.7371195.712  61.702  1199.8  61.939
1211.235  62.5461225.755   63.791232.871  64.5711247.517    66.11252.895  66.695
1254.423  66.8941259.518  68.1791262.376  68.9761271.687  70.2171272.174  70.264
1282.417  70.748 1285.01   70.98
#Mann= 8 , 1 , 0 
   462.4    .023       0  737.18    .023       0 755.477    .023       0
1016.922    .023       01042.386    .023       01214.199    .023       0
1243.473    .023       0 1285.01    .023       0
Bank Sta=462.4,1285.01
XS Rating Curve= 0 ,0
XS HTab Starting El and Incr=56.58,0.3, 51 
Exp/Cntr=0.3,0.1

Type RM Length L Ch R = 1 ,1147.37*,86.883,96.169,101.77
XS GIS Cut Line=2
7471868.514000144960590.202002477469442.297999354960843.65800369
Node Last Edited Time=Dec/18/2015 13:33:17
#Sta/Elev= 82 
   476.8  71.748 493.691  69.573 494.909  68.781 494.933  68.777 501.041  67.488
  504.25  66.983 508.627  65.978 514.671  64.406  516.25  64.069 534.574  63.109
 555.599  62.286 557.871  62.282 567.043  62.422 578.342  62.354 588.041  62.414
 598.916  62.031 600.924  62.055 623.542  62.271 643.022  62.485 667.944  62.391
 692.181  62.623 700.017  62.591 708.923  62.469 726.543  62.428 750.124  62.219
 751.531   62.21 779.758  61.848 793.017  61.415 800.633  61.318 834.129  60.842
 840.008  60.744 855.303  59.987 866.552  59.879  876.88  59.888 877.192  59.752
 877.729  59.508 889.243  59.129 923.216   58.35 929.793  58.133 934.593  58.042
 944.807  58.043 954.645  57.964 959.853  57.596  963.93  57.517  981.89  57.228
 996.619   57.181003.342  57.2221013.391  57.1291022.924  57.1411031.224  57.205
1063.154  57.3041067.528  57.2481081.643  57.1791082.051  57.1711091.126   57.49
1098.272  57.2411106.206  57.0011117.652  56.8911122.504  56.794 1147.56  57.127
1160.571  58.0271163.683  58.2671167.488  59.1681178.851  59.5331183.045  59.745
 1184.44  59.8541192.408  60.2191203.051  60.7641223.284  61.6171227.625  61.862
1239.769  62.428 1255.19  63.5691262.748  64.2811278.302  65.5871284.013  66.132
1285.636  66.3471291.047  67.6181294.083  68.481 1303.97  70.0891304.488  70.138
1315.366  70.707 1318.12   71.07
#Mann= 8 , 1 , 0 
   476.8    .023       0  757.83    .023       0 776.543    .023       0
1043.935    .023       01069.977    .023       01245.699    .023       0
1275.638    .023       0 1318.12    .023       0
Bank Sta=476.8,1318.12
XS Rating Curve= 0 ,0
XS HTab Starting El and Incr=56.94,0.3, 50 
Exp/Cntr=0.3,0.1

Type RM Length L Ch R = 1 ,1147.28*,86.883,96.169,101.77
XS GIS Cut Line=2
7471864.101000564960512.33300988 7469462.74699744960727.41701475
Node Last Edited Time=Dec/18/2015 13:33:17
#Sta/Elev= 82 
   491.2  71.777 508.282  69.594 509.513  68.881 509.538  68.877 515.715  67.419
 518.959  66.909 523.386  65.938 529.498   64.32 531.096  64.008 549.626  62.969
 570.888  62.193 573.186  62.184 582.461  62.381 593.888  62.261 603.696  62.336
 614.694  62.026 616.725  62.052 639.598  62.259 659.298  62.478 684.501  62.437
 709.012   62.68 716.936  62.665 725.943  62.519 743.761  62.532 767.608  62.318
 769.031   62.31 797.577  61.991 810.986  61.612 818.688  61.527 852.562  61.077
 858.507  60.977 873.975  60.276 885.351  60.153 895.795  60.202  896.11  60.084
 896.654  59.868 908.298  59.462 942.654  58.773 949.305  58.541 954.159  58.473
 964.489  58.498 974.438  58.401 979.704  58.065 983.828  57.984 1001.99  57.717
1016.886  57.6641023.684  57.7361033.847  57.6091043.488  57.5761051.881  57.627
1084.172  57.6961088.594  57.6451102.869  57.6451103.281  57.6371112.459  57.874
1119.685  57.6251127.709  57.4011139.284  57.2861144.191  57.161 1170.71  57.456
1184.481  58.2451187.775   58.471191.801  59.2781203.828  59.6521208.267  59.908
1209.744  60.0261218.177  60.3171229.442  60.7911250.856  61.5321255.451  61.784
1268.304  62.3111284.626  63.3491292.624  63.9911309.086  65.0741315.132   65.57
1316.849  65.8011322.576  67.0571325.789  67.9871336.254  69.9621336.802  70.012
1348.316  70.666 1351.23   71.16
#Mann= 8 , 1 , 0 
   491.2    .023       0 778.479    .023       0 797.609    .023       0
1070.947    .023       01097.569    .023       01277.198    .023       0
1307.803    .023       0 1351.23    .023       0
Bank Sta=491.2,1351.23
XS Rating Curve= 0 ,0
XS HTab Starting El and Incr=57.31,0.3, 49 
Exp/Cntr=0.3,0.1

Type RM Length L Ch R = 1 ,1147.19*,86.883,96.169,101.77
XS GIS Cut Line=2
7471859.688000284960434.46400494 7469483.19599874960611.17600738
Node Last Edited Time=Dec/18/2015 13:33:17
#Sta/Elev= 82 
   505.6  71.806 522.872  69.616 524.117  68.981 524.142  68.978 530.389  67.349
 533.669  66.835 538.145  65.899 544.326  64.234 545.941  63.947 564.678  62.829
 586.177  62.101 588.501  62.086  597.88  62.339 609.434  62.168 619.352  62.258
 630.472  62.021 632.525  62.049 655.654  62.246 675.573  62.471 701.059  62.483
 725.843  62.737 733.855  62.738 742.962  62.569 760.979  62.636 785.093  62.417
 786.532   62.41 815.396  62.135 828.955  61.809 836.743  61.736 870.995  61.312
 877.006  61.209 892.646  60.564 904.149  60.427  914.71  60.516 915.029  60.417
 915.579  60.227 927.353  59.794 962.092  59.197 968.817   58.95 973.725  58.904
  984.17  58.952 994.231  58.838 999.556  58.5331003.725   58.451022.091  58.206
1037.152  58.1481044.027  58.2491054.302  58.0881064.051  58.0111072.537  58.049
1105.189  58.0881109.661  58.0411124.095  58.1121124.512  58.1021133.792  58.259
1141.099  58.0081149.212  57.8011160.917  57.6811165.878  57.5281193.861  57.785
1208.391  58.4631211.867  58.6731216.115  59.3871228.806  59.7721233.489   60.07
1235.047  60.1981243.946  60.4141255.832  60.8181278.428  61.4481283.277  61.706
1296.839  62.1931314.061  63.1281322.501  63.7011339.871   64.56 1346.25  65.007
1348.062  65.2551354.105  66.4961357.495  67.4921368.538  69.8351369.116  69.886
1381.265  70.625 1384.34   71.25
#Mann= 8 , 1 , 0 
   505.6    .023       0 799.129    .023       0 818.674    .023       0
 1097.96    .023       0 1125.16    .023       01308.698    .023       0
1339.969    .023       0 1384.34    .023       0
Bank Sta=505.6,1384.34
XS Rating Curve= 0 ,0
XS HTab Starting El and Incr=57.68,0.3, 48 
Exp/Cntr=0.3,0.1

Type RM Length L Ch R = 1 ,1147.10*,86.883,96.169,101.77
XS GIS Cut Line=2
     7471855.275     4960356.595     7469503.645     4960494.935
Node Last Edited Time=Dec/18/2015 13:33:17
#Sta/Elev= 82 
     520  71.835 537.463  69.637 538.722  69.082 538.747  69.078 545.062  67.279
 548.379  66.761 552.904  65.859 559.153  64.148 560.786  63.886  579.73   62.69
 601.466  62.009 603.815  61.989 613.298  62.298  624.98  62.075 635.007   62.18
 646.251  62.016 648.326  62.045  671.71  62.233 691.849  62.464 717.616  62.528
 742.673  62.793 750.775  62.812 759.982  62.619 778.198   62.74 802.577  62.516
 804.032   62.51 833.215  62.279 846.923  62.007 854.797  61.945 889.427  61.546
 895.505  61.441 911.318  60.853 922.948  60.701 933.625   60.83 933.947  60.749
 934.503  60.586 946.407  60.127  981.53  59.621 988.329  59.358 993.292  59.335
1003.852  59.4071014.023  59.2741019.407  59.0011023.623  58.9171042.191  58.695
1057.418  58.6311064.369  58.7631074.758  58.5681084.614  58.4461093.194  58.471
1126.206   58.481130.727  58.4381145.321  58.5781145.742  58.5681155.124  58.644
1162.512  58.3921170.715  58.2021182.549  58.0761187.565  57.8951217.011  58.113
1232.301  58.6811235.958  58.8761240.429  59.4961253.783  59.8921258.711  60.233
1260.351   60.371269.715  60.5121282.223  60.845    1306  61.3631311.102  61.629
1325.374  62.0761343.496  62.9081352.377  63.4111370.656  64.0471377.368  64.444
1379.275  64.7091385.635  65.9351389.202  66.9981400.821  69.707 1401.43   69.76
1414.214  70.585 1417.45   71.34
#Mann= 8 , 1 , 0 
     520    .023       0 819.779    .023       0  839.74    .023       0
1124.972    .023       01152.752    .023       01340.197    .023       0
1372.134    .023       0 1417.45    .023       0
Bank Sta=520,1417.45
XS Rating Curve= 0 ,0
XS HTab Starting El and Incr=58.04,0.3, 46 
Exp/Cntr=0.3,0.1

Type RM Length L Ch R = 1 ,1147.01*,86.883,96.169,101.77
XS GIS Cut Line=2
7471850.862001124960278.726019777469524.093994814960378.69402951
Node Last Edited Time=Dec/18/2015 13:33:17
#Sta/Elev= 82 
   534.4  71.864 552.054  69.659 553.326  69.182 553.352  69.178 559.736  67.209
 563.089  66.688 567.663  65.819  573.98  64.063 575.631  63.826 594.782   62.55
 616.756  61.917  619.13  61.891 628.716  62.256 640.526  61.982 650.662  62.102
 662.029  62.012 664.127  62.042 687.766  62.221 708.125  62.456 734.173  62.574
 759.504   62.85 767.694  62.886 777.002   62.67 795.416  62.844 820.062  62.615
 821.533   62.61 851.034  62.423 864.892  62.204 872.852  62.154  907.86  61.781
 914.004  61.673 929.989  61.141 941.746  60.975  952.54  61.144 952.866  61.081
 953.428  60.945 965.462   60.461000.968  60.0451007.841  59.7661012.858  59.766
1023.534  59.8621033.816  59.7111039.259  59.469 1043.52  59.3841062.291  59.184
1077.685  59.1151084.711  59.2761095.214  59.0471105.177  58.8811113.851  58.894
1147.223  58.8721151.794  58.8341166.547  59.0441166.973  59.0331176.457  59.029
1183.926  58.7751192.218  58.6021204.181  58.4711209.252  58.2621240.161  58.442
 1256.21  58.899 1260.05   59.081264.743  59.605 1278.76  60.0111283.934  60.395
1285.655  60.5421295.484  60.6091308.613  60.8721333.572  61.2781338.928  61.551
1353.908  61.9591372.931  62.6871382.254  63.1211401.441  63.5331408.487  63.882
1410.489  64.1621417.164  65.3741420.908  66.5031433.105   69.581433.744  69.634
1447.163  70.544 1450.56   71.43
#Mann= 8 , 1 , 0 
   534.4    .023       0 840.429    .023       0 860.806    .023       0
1151.985    .023       01180.344    .023       01371.697    .023       0
1404.299    .023       0 1450.56    .023       0
Bank Sta=534.4,1450.56
XS Rating Curve= 0 ,0
XS HTab Starting El and Incr=58.41,0.3, 45 
Exp/Cntr=0.3,0.1

Type RM Length L Ch R = 1 ,1146.92*,86.883,96.169,101.77
XS GIS Cut Line=2
7471846.449000844960200.857014837469544.542996114960262.45302213
Node Last Edited Time=Dec/18/2015 13:33:17
#Sta/Elev= 82 
   548.8  71.893 566.644   69.68 567.931  69.282 567.956  69.279 574.409  67.139
 577.798  66.614 582.422  65.779 588.808  63.977 590.477  63.765 609.834   62.41
 632.045  61.824 634.445  61.793 644.135  62.215 656.072  61.889 666.318  62.024
 677.807  62.007 679.928  62.039 703.822  62.208 724.401  62.449  750.73  62.619
 776.335  62.907 784.613  62.959 794.021   62.72 812.635  62.948 837.546  62.714
 839.033   62.71 868.853  62.567  882.86  62.401 890.906  62.363 926.292  62.016
 932.503  61.906 948.661   61.43 960.544  61.249 971.455  61.458 971.784  61.413
 972.352  61.305 984.516  60.7921020.406  60.4691027.354  60.1751032.424  60.197
1043.215  60.3161053.609  60.148 1059.11  59.9371063.418   59.851082.391  59.673
1097.951  59.5991105.053   59.791115.669  59.527 1125.74  59.3151134.508  59.316
1168.241  59.264 1172.86  59.2311187.772  59.5111188.203  59.499 1197.79  59.413
1205.339  59.1591213.721  59.0021225.813  58.8661230.939  58.6291263.311   58.77
 1280.12  59.1161284.142  59.2831289.057  59.7151303.738  60.1311309.156  60.558
1310.959  60.7141321.253  60.7071335.004  60.8991361.144  61.1941366.753  61.473
1382.443  61.8411402.366  62.467 1412.13   62.831432.226   63.021439.605  63.319
1441.702  63.6161448.693  64.8131452.614  66.0091465.389  69.4521466.058  69.508
1480.112  70.503 1483.67   71.52
#Mann= 8 , 1 , 0 
   548.8    .023       0 861.078    .023       0 881.872    .023       0
1178.997    .023       01207.935    .023       01403.196    .023       0
1436.464    .023       0 1483.67    .023       0
Bank Sta=548.8,1483.67
XS Rating Curve= 0 ,0
XS HTab Starting El and Incr=58.78,0.3, 44 
Exp/Cntr=0.3,0.1

Type RM Length L Ch R = 1 ,1146.83*,86.883,96.169,101.77
XS GIS Cut Line=2
7471842.036000564960122.98800988 7469564.99199744960146.21201476
Node Last Edited Time=Dec/18/2015 13:33:17
#Sta/Elev= 82 
   563.2  71.922 581.235  69.701 582.535  69.383 582.561  69.379 589.083   67.07
 592.508   66.54 597.182   65.74 603.635  63.891 605.322  63.704 624.886   62.27
 647.334  61.732  649.76  61.695 659.553  62.173 671.618  61.796 681.973  61.946
 693.585  62.002 695.728  62.036 719.878  62.195 740.677  62.442 767.287  62.665
 793.165  62.963 801.532  63.033 811.041   62.77 829.853  63.052 855.031  62.812
 856.534   62.81 886.672  62.711 900.829  62.598 908.961  62.572 944.725  62.251
 951.001  62.138 967.332  61.718 979.343  61.522  990.37  61.772 990.703  61.746
 991.277  61.6641003.571  61.1251039.844  60.8921046.866  60.5831051.991  60.628
1062.897  60.7711073.401  60.5851078.961  60.4051083.315  60.3171102.491  60.162
1118.217  60.0831125.396  60.3031136.125  60.0071146.304   59.751155.165  59.738
1189.258  59.6561193.927  59.6271208.998  59.9771209.434  59.9641219.123  59.798
1226.753  59.5431235.225  59.4031247.445   59.261252.626  58.9961286.461  59.099
 1304.03  59.3341308.233  59.486 1313.37  59.8241328.715  60.2511334.378   60.72
1336.262  60.8861347.022  60.8051361.394  60.9251388.716  61.1091394.579  61.395
1410.978  61.7241431.802  62.2461442.007   62.54 1463.01  62.5071470.723  62.757
1472.915   63.071480.222  64.2521484.321  65.5141497.673  69.3251498.372  69.382
1513.062  70.462 1516.78   71.61
#Mann= 8 , 1 , 0 
   563.2    .023       0 881.728    .023       0 902.938    .023       0
1206.009    .023       01235.527    .023       01434.695    .023       0
 1468.63    .023       0 1516.78    .023       0
Bank Sta=563.2,1516.78
XS Rating Curve= 0 ,0
XS HTab Starting El and Incr=59.15,0.3, 43 
Exp/Cntr=0.3,0.1

Type RM Length L Ch R = 1 ,1146.74*,86.883,96.169,101.77
XS GIS Cut Line=2
7471837.623000284960045.11900494 7469585.44099874960029.97100738
Node Last Edited Time=Dec/18/2015 13:33:17
#Sta/Elev= 82 