Geom Title=Test 2-SmederevskaAdaDvogubo-Q=2000m3/s
Program Version=4.00
Viewing Rectangle= 7484441 , 7507053.76 , 4953853.86 , 4945433.07 

River Reach=Dunav           ,Dunav 4         
Reach XY= 27 
     7484662.694     4945971.913     7485874.545     4946024.246
     7487243.514      4945934.53     7488687.264     4946106.491
     7490816.774     4946468.037     7492283.879     4947161.085
     7493516.771      4947919.35     7494358.445     4948547.286
     7495158.633     4949181.139     7495811.164     4949733.601
     7496587.643     4950260.822     7497343.843     4950607.724
     7498129.304     4951303.026     7498735.239     4951863.751
     7499513.237     4952297.377     7499924.663     4952566.524
     7500912.115     4952940.337     7501690.095     4952910.435
     7502498.001     4952843.141     7503171.235      4952731.17
 7503718.7473712 4952616.2069561     7503718.248     4952619.023
 7504086.4301412 4952620.7891703 7504086.5079695 4952620.4174527
     7504943.215     4952623.696     7505995.167     4952684.442
     7506832.069     4952819.953
Rch Text X Y=7491447.2216686,4952216.0283777
Reverse River Text= 0 

Type RM Length L Ch R = 1 ,1124.800,776.78,810.06,837.62
BEGIN DESCRIPTION:
00066 PA-40
END DESCRIPTION:
XS GIS Cut Line=2
      7485544.23      4946654.96      7485530.14      4945622.63
Node Last Edited Time=Dec/18/2015 15:18:34
#Sta/Elev= 40 
     356   71.19  372.71   64.07  383.82   64.68  409.29   64.43   431.7   62.75
  447.24   61.93  455.81   62.26     493   61.46  512.05   60.45  534.72    59.8
  562.69   60.16  576.35   60.47  608.93   58.59   628.5   58.31  640.47   57.67
  647.01   58.06  655.59   60.11  665.81   55.31  673.58   53.19  682.69   52.63
  703.53   52.73  712.41   53.88  730.63   54.94  739.53   54.56  761.47   54.87
  782.07   55.88  821.16   55.54  827.89   56.49  842.62    54.4  857.77      54
  875.91   54.85   883.3   55.71  913.42   62.31  930.4362.78235  938.73   63.42
  964.63   67.99  966.71   69.34  980.43   70.19   986.471.18501  986.43   71.19
#Mann= 4 ,-1 , 0 
     356    .023       0  562.69    .023       0  782.07    .023       0
  930.43    .023       0
Bank Sta=356,986.4
XS Rating Curve= 0 ,0
Exp/Cntr=0.3,0.1

Type RM Length L Ch R = 1 ,1123.980,963.88,945.69,939.01
BEGIN DESCRIPTION:
00067 D-101
END DESCRIPTION:
XS GIS Cut Line=2
      7486291.77      4946655.18      7486378.85      4945555.26
Node Last Edited Time=Dec/18/2015 15:18:34
#Sta/Elev= 30 
     400   70.58  414.37   69.33  427.33   66.48  437.32   66.43  484.18   64.29
  497.62   62.92  519.56   61.66  551.14   60.76  578.15    61.2  596.72   60.54
   606.4   60.34  617.82   58.55  626.94   58.53  668.72    55.6  673.12    55.8
   703.1   52.86  760.45   55.51  768.12   52.56  796.46   51.17   816.2   51.13
  847.67   51.77  911.08   55.14   932.656.78881  942.35   57.41  956.36   59.46
  967.57   61.91  972.61   64.95  977.39   65.51  981.81   68.81   990.4   71.68
#Mann= 4 ,-1 , 0 
     400    .023       0  596.72    .023       0  796.46    .023       0
   932.6    .023       0
Bank Sta=400,990.4
XS Rating Curve= 0 ,0
Exp/Cntr=0.3,0.1

Type RM Length L Ch R = 1 ,1123.020,756.88,813,878.04
BEGIN DESCRIPTION:
00068 D-100
END DESCRIPTION:
XS GIS Cut Line=2
      7487263.85      4946647.82      7487301.83      4945515.63
Node Last Edited Time=Dec/18/2015 15:18:34
#Sta/Elev= 35 
     360   70.97     368   70.17  400.99   69.39  422.73   67.88  460.88   65.87
  513.96   64.13  531.41    63.2  553.19   61.48   572.7   61.37  590.75   59.68
   603.7   59.23  614.03    59.8  653.98   57.63   659.4    58.1  704.87   57.03
  719.83   57.16  777.42   55.12  783.24   55.21  835.95   54.15   854.8   54.15
  882.12   53.93  899.52   52.48   913.1   52.37  917.29   53.14  947.12   53.79
  969.62   53.83  992.71    55.3 1006.41   57.99 1029.8364.19827 1037.34   65.51
 1056.88   67.08 1069.55   69.16 1094.83   70.17  1095.871.62514 1095.83   71.67
#Mann= 4 ,-1 , 0 
     360    .023       0   603.7    .023       0   854.8    .023       0
 1029.83    .023       0
Bank Sta=360,1095.8
XS Rating Curve= 0 ,0
Exp/Cntr=0.3,0.1

Type RM Length L Ch R = 1 ,1122.210,809.41,793.61,776.14
BEGIN DESCRIPTION:
00069 D-99
END DESCRIPTION:
XS GIS Cut Line=2
       7487965.2      4946704.49       7488176.9      4945613.18
Node Last Edited Time=Dec/18/2015 15:18:34
#Sta/Elev= 35 
     347   70.77  370.42   69.38  381.95   67.46  410.34   65.28  430.33   65.64
  498.09   62.54  519.08   62.23  531.93   60.88  540.82   61.21  552.55   59.98
  558.42   60.71  570.65   59.55  582.12   59.41  590.59   60.37  604.35   59.75
  626.21   58.08  646.46   58.95  665.53    58.1  701.82   57.15  710.45    56.4
  743.53   55.48  759.61   55.38  796.88   54.27  861.47   53.42  887.76   52.55
  900.69   54.09  912.41   54.12   918.3   55.66  938.27   57.59  956.31   60.83
  973.18   61.43  996.44   64.16 1039.6565.64819 1075.45   67.72  1089.7   71.77
#Mann= 4 ,-1 , 0 
     347    .023       0  604.35    .023       0  861.47    .023       0
 1039.65    .023       0
Bank Sta=347,1089.7
XS Rating Curve= 0 ,0
Exp/Cntr=0.3,0.1

Type RM Length L Ch R = 1 ,1121.410,805.73,800.81,797.7
BEGIN DESCRIPTION:
00070 D-98
END DESCRIPTION:
XS GIS Cut Line=2
      7488781.39      4946817.82      7488934.03       4945783.9
Node Last Edited Time=Dec/18/2015 15:18:34
#Sta/Elev= 35 
     369   71.41     377   70.21  386.67   65.64  401.96    63.4   467.4    61.2
  499.15   60.43   519.1   58.85  534.83   59.04  545.82    57.2  557.31   57.16
   576.7   56.06  582.19   56.74  590.49   54.57  594.43   55.73  622.21   54.95
  639.52   53.89  658.37   54.18  683.92   55.23  765.97   55.23   801.2   54.93
  829.13   55.28  833.41    55.2   842.7   57.52  861.26   57.65  877.75   57.18
  909.13   59.73  913.27    61.4  927.28   62.97  953.72   64.15  962.0765.30194
  992.22   66.53 1005.52   67.94 1008.16   69.35  1025.1 71.1046 1025.13   71.11
#Mann= 4 ,-1 , 0 
     369    .023       0  594.43    .023       0  829.13    .023       0
  962.07    .023       0
Bank Sta=369,1025.1
XS Rating Curve= 0 ,0
Exp/Cntr=0.3,0.1

Type RM Length L Ch R = 1 ,1120.600,924.43,939.12,977.53
BEGIN DESCRIPTION:
00071 PA-39
END DESCRIPTION:
XS GIS Cut Line=2
      7489568.42      4947057.82      7489725.08      4945860.58
Node Last Edited Time=Dec/18/2015 15:18:34
#Sta/Elev= 30 
     476    71.3  494.29   69.14  497.23   66.44  503.98    65.6  514.69   61.19
  523.79   60.58   554.9   60.06     581   58.96  604.11   58.39  608.48   57.36
  622.56   57.58  669.08   56.49  690.68   56.57  742.22   57.01   766.9   56.45
  776.27   56.76  838.73    56.2  898.42   56.73   935.4   56.98  985.22   56.63
  996.94   57.71 1011.05   57.59 1035.58   58.09 1046.63    58.7 1068.4561.83918
  1074.1    63.4 1096.33   66.29 1103.57   69.53 1113.45    70.2  1118.5      73
#Mann= 4 ,-1 , 0 
     476    .023       0  690.68    .023       0  898.42    .023       0
 1068.45    .023       0
Bank Sta=476,1118.5
XS Rating Curve= 0 ,0
Exp/Cntr=0.3,0.1

Type RM Length L Ch R = 1 ,1119.640,868.76,996.19,1143.3
BEGIN DESCRIPTION:
00072 D-97
END DESCRIPTION:
XS GIS Cut Line=2
        7490335.      4947659.55      7490688.82      4945999.56
Node Last Edited Time=Dec/18/2015 15:18:34
#Sta/Elev= 40 
     794   70.69  831.07   69.47  840.24   66.96  862.29    64.5  888.15   62.73
  939.56   60.92  950.12   60.92  958.92   60.18  968.08   60.58   999.5    58.8
 1006.86   59.25 1034.38   59.08 1055.59   59.54 1090.54    59.2 1109.93   58.93
 1123.25   59.46 1133.72   59.08 1152.34   59.48 1163.67   59.29 1205.29    59.7
 1214.71   59.39 1235.05   59.63 1282.18   59.58 1289.47   59.92 1310.39   59.63
 1316.73   59.97 1405.05   59.86 1445.23   60.06 1471.63   60.53 1506.15   60.47
 1542.84   57.84 1559.34    58.2 1568.02   59.12 1581.74    59.6 1602.2861.67885
 1626.16   64.64 1637.95   67.68 1640.26   69.31 1652.28   70.19  1655.3   71.99
#Mann= 4 ,-1 , 0 
     794    .023       0 1090.54    .023       0 1405.05    .023       0
 1602.28    .023       0
Bank Sta=794,1655.3
XS Rating Curve= 0 ,0
Exp/Cntr=0.3,0.1

Type RM Length L Ch R = 1 ,1118.620,998.77,1010.93,1048.05
BEGIN DESCRIPTION:
00073 D-96
END DESCRIPTION:
XS GIS Cut Line=2
      7491118.97      4947570.76      7491809.16      4946227.53
Node Last Edited Time=Dec/18/2015 15:18:34
#Sta/Elev= 45 
     401   71.68     409   70.18  427.57   69.45  439.04   66.98  459.18   65.27
  507.38   63.17  518.88   62.91  526.13   61.59  546.97   62.43  554.82   61.84
  591.58   62.67     604   62.06  639.86   62.28  660.71   61.95  685.36   62.37
  701.74    61.9  725.22   62.46  726.89   62.08  766.11    62.5  778.14   62.31
  826.31   62.73  843.97   62.43  853.29   62.84   864.8    62.5  935.43   62.75
    1010   62.59 1057.48   63.27 1084.73   62.52 1092.95   62.98 1131.03    62.2
 1138.32   61.44 1159.77   61.28 1185.81   62.14 1211.57   62.24  1280.1    61.9
 1295.28   61.61 1366.15   60.91 1400.98    59.7 1405.21   60.47 1441.1860.14735
 1462.13   60.24 1472.75   62.33 1481.96   65.59 1491.18   70.18  1500.2   75.68
#Mann= 4 ,-1 , 0 
     401    .023       0  766.11    .023       0 1138.32    .023       0
 1441.18    .023       0
Bank Sta=401,1500.2
XS Rating Curve= 0 ,0
Exp/Cntr=0.3,0.1

Type RM Length L Ch R = 1 ,1117.540,1184.94,1332.15,1622.89
BEGIN DESCRIPTION:
00074 D-95
END DESCRIPTION:
XS GIS Cut Line=2
      7491900.79      4948173.13      7492797.67      4946575.74
Node Last Edited Time=Dec/18/2015 15:18:34
#Sta/Elev= 33 
     436   71.57  447.59      68  459.19   66.29  534.12   62.14  594.49   61.82
  616.14   60.78   635.8    61.1  668.75   60.09  681.99   62.96  693.95   71.37
  736.75   76.99  784.07   77.04  891.47   71.02    1218   71.37  1237.2   63.79
  1250.4   60.84 1273.92   60.52 1326.71   60.78 1329.42   60.33 1422.19   60.03
 1497.14      58  1509.2   58.25 1533.87   56.73 1576.07   56.41 1625.09   56.65
 1696.37   57.65 1724.37   56.99 1751.9558.21096 1770.71   59.78 1782.99   63.09
 1788.48   66.56 1801.95   70.17    1807   77.17
#Mann= 4 ,-1 , 0 
     436    .023       0  1237.2    .023       0 1533.87    .023       0
 1751.95    .023       0
Bank Sta=436,1807
XS Rating Curve= 0 ,0
Exp/Cntr=0.3,0.1

Type RM Length L Ch R = 1 ,1116.000,1207.84,1277.19,1333.72
BEGIN DESCRIPTION:
00075 PA-38
END DESCRIPTION:
XS GIS Cut Line=2
        7492727.      4948868.44      7494344.85      4947065.65
Node Last Edited Time=Dec/18/2015 15:18:34
#Sta/Elev= 39 
     317   70.76  326.23   66.62  357.83   64.22  393.54   63.42  403.65   62.63
  421.27   62.88  429.17   62.07  476.09   62.78  486.56   62.39  514.98   63.02
  522.12    62.5   557.2   62.94   578.8    64.6  589.22   65.81  602.29   71.16
  871.61   72.04  962.45   70.02 1036.56   69.04 1650.93   70.02    1787   70.96
 1803.04   68.25 1809.11   64.55 1826.02   62.03  1827.9   60.74 1870.31   60.96
 1907.98   59.91 1925.97   60.53 1956.54   60.46 1970.24   61.12 2042.73   61.35
 2100.28   60.78 2162.35    59.6 2232.58   59.65 2302.92   61.51 2322.86   61.35
 2362.29  63.295 2387.27   63.21 2395.96   65.03  2418.3   71.86
#Mann= 4 ,-1 , 0 
     317    .023       0   578.8    .023       0 2100.28    .023       0
 2362.29    .023       0
Bank Sta=317,2418.3
XS Rating Curve= 0 ,0
Exp/Cntr=0.3,0.1

Type RM Length L Ch R = 1 ,1114.670,1260.6,1204.59,1189.95
BEGIN DESCRIPTION:
00076 D-94
END DESCRIPTION:
XS GIS Cut Line=2
      7493661.55      4949625.48      7495697.89      4947894.38
Node Last Edited Time=Dec/18/2015 15:18:34
#Sta/Elev= 36 
      82   72.15  100.13   59.57  115.43   56.96  183.73   58.74  226.58   61.28
  255.71   71.45  323.33   74.98  420.38      74  428.25   74.92  454.48   74.06
  485.96   73.02  732.53      74  826.96      71  947.62   69.96  1330.6      68
 1540.45      71 1629.63   76.02    1701   70.75 1732.01   67.29 1789.94   64.86
 1814.35   61.72 1821.45   62.58 1857.23   60.59 1910.43   59.66 1984.19   58.35
 2073.56   58.15 2106.46    57.4 2155.15   57.17 2191.95   59.67 2222.66   63.32
  2252.7   64.35 2322.0363.79861  2350.4   64.29 2368.57   67.28  2387.776.64409
 2387.71   76.65
#Mann= 4 ,-1 , 0 
      82    .023       0 1814.35    .023       0 2106.46    .023       0
 2322.03    .023       0
Bank Sta=82,2387.7
XS Rating Curve= 0 ,0
Exp/Cntr=0.3,0.1

Type RM Length L Ch R = 1 ,1113.480,1429.58,1278.66,1285.12
BEGIN DESCRIPTION:
00077 PA-37A
END DESCRIPTION:
XS GIS Cut Line=2
        7494781.      4950254.51       7496094.9      4948847.57
Node Last Edited Time=Dec/18/2015 15:18:34
#Sta/Elev= 40 
      90   72.34  101.61   65.65  108.64   63.69  112.73   59.26  124.11    57.2
  173.63   56.84  198.75   58.34  199.76   57.52  221.15   58.97  257.49   62.52
  280.05   71.24  293.54   67.95  309.12   67.44  326.05   71.44  624.55   73.02
   864.6   68.92  961.42   72.04 1161.12      71 1274.08   70.02    1288   71.34
 1309.38   69.09    1314   65.91 1327.13   63.32 1329.84   62.54 1364.27   60.21
  1389.5   59.16 1409.98    59.4 1429.24   58.13 1436.83   59.11 1458.58   58.63
 1517.09   58.61  1551.8   57.96 1587.23   57.87 1716.41   58.47  1761.9    58.2
 1797.4560.77308 1817.96   63.28 1835.57   64.32 1847.45   70.07  1863.1   71.08
#Mann= 4 ,-1 , 0 
      90    .023       0 1327.13    .023       0 1587.23    .023       0
 1797.45    .023       0
Bank Sta=90,1863.1
XS Rating Curve= 0 ,0
Exp/Cntr=0.3,0.1

Type RM Length L Ch R = 1 ,1112.220,1087.76,989.29,875.76
BEGIN DESCRIPTION:
00078 PA-37
END DESCRIPTION:
XS GIS Cut Line=2
      7496165.52      4950610.61      7497101.11      4949655.36
Node Last Edited Time=Dec/18/2015 15:18:34
#Sta/Elev= 45 
      52   71.22      58   70.12   66.36   65.65   76.69   62.18  133.61   61.64
  144.11   61.25  183.66   61.69  213.44   61.01  230.67   61.37  250.73   61.04
  265.13   62.11  307.58   62.81  325.18   65.96  339.78    69.2   367.1   70.42
     548   71.22     552   70.12  560.39    69.3  568.01   63.86   578.8   60.37
  585.18   59.43  598.84   59.68   628.1   58.76  639.86    59.4  667.15   59.24
  740.09   60.11  769.77      60  797.22    59.5  842.39   59.66  869.02   59.06
  900.54    58.9  926.94   58.72  938.94   59.23 1014.28   59.58 1059.31   60.43
 1080.71   60.16 1105.45   61.92 1114.36   63.57 1121.83   67.56 1125.76   65.53
 1158.74   66.62 1171.34   66.57 1194.24   68.32 1196.74   69.11  1227.1   70.12
#Mann= 4 ,-1 , 0 
      52    .023       0     552    .023       0  900.54    .023       0
 1158.74    .023       0
Bank Sta=52,1227.1
XS Rating Curve= 0 ,0
Exp/Cntr=0.3,0.1

Type RM Length L Ch R = 1 ,1111.280,1014.96,983.43,955.66
BEGIN DESCRIPTION:
00079 PA-36A
END DESCRIPTION:
XS GIS Cut Line=2
      7497091.31      4951122.05      7497798.18       4950153.2
Node Last Edited Time=Dec/18/2015 15:18:34
#Sta/Elev= 60 
     171   70.82   185.9   69.34  190.53   67.41  217.93   65.23  230.08    64.6
  262.32   64.41  275.36   63.88  294.92   63.85  308.12   63.43  323.28   62.34
  327.96   62.65  336.33   62.06  348.94   60.58  352.95   60.63  388.91   58.14
  396.39   57.09  412.51   56.94  429.54   56.51  443.16   56.18  451.49   56.79
  481.49   57.25  491.74   58.03  503.29   57.86  516.86   58.53  535.33    58.6
  559.93      59  563.58   58.51  568.42   58.96  585.42   58.57  597.97   59.01
  601.34   58.73  620.05    59.2  650.61   58.73  653.59   59.18  660.84   58.79
  678.34   59.07  688.55   58.92  707.11   59.14  733.97   59.19  778.64   59.41
  808.35   59.78  836.67    60.3  868.92   60.31  878.86    60.9   885.4   60.86
  896.45   61.87   906.6   61.65  915.84   62.37  927.06   62.62  934.05   62.34
  948.24    60.2   955.2   60.74  966.53   65.11  972.92    66.6  979.31 66.6425
  994.92   67.95  997.95   69.25 1022.31   70.12  1029.370.71915 1029.31   70.72
#Mann= 4 ,-1 , 0 
     171    .023       0  429.54    .023       0  733.97    .023       0
  979.31    .023       0
Bank Sta=171,1029.3
XS Rating Curve= 0 ,0
Exp/Cntr=0.3,0.1

Type RM Length L Ch R = 1 ,1110.320,734.87,781.86,836.08
BEGIN DESCRIPTION:
00080 D-93
END DESCRIPTION:
XS GIS Cut Line=2
       7497851.1      4951829.19      7498446.49      4950841.23
Node Last Edited Time=Dec/18/2015 15:18:34
#Sta/Elev= 50 
     299   70.61   314.3   69.37  323.46   67.17  338.74   65.93   371.7   64.15
  374.35   63.68  391.99   63.09  410.21   61.91  436.89   61.15   469.7    59.4
  481.01   59.42  500.63   58.73  519.06   58.68  537.49    57.9  547.52   57.52
  554.64   57.66  573.09   56.92  586.16   57.09  599.15   56.47  600.81   56.84
  609.29   56.44   626.1   56.73  636.79   56.22  638.05   56.57  652.67   56.62
  667.51   56.28  679.91   56.74  701.57    56.7  702.36   57.07  714.83   57.16
  715.59   56.85  735.33   57.37  775.97   56.97  793.49   56.96  822.77   57.01
  849.76   57.19  884.87   57.58  903.46   58.71   911.4   60.03   931.2   62.12
  938.13    62.6  957.62   62.78  977.32   63.36   998.563.52326 1010.13   63.78
 1020.19   64.91 1025.11   66.34  1033.6   67.32 1039.24   69.36  1048.5   70.11
#Mann= 4 ,-1 , 0 
     299    .023       0  537.49    .023       0  793.49    .023       0
   998.5    .023       0
Bank Sta=299,1048.5
XS Rating Curve= 0 ,0
Exp/Cntr=0.3,0.1

Type RM Length L Ch R = 1 ,1109.540,893.05,882.34,865.34
BEGIN DESCRIPTION:
00081 PA-36
END DESCRIPTION:
XS GIS Cut Line=2
      7498376.09      4952300.72       7499069.2      4951427.39
Node Last Edited Time=Dec/18/2015 15:18:34
#Sta/Elev= 40 
     327    71.1     333    70.1  346.51   69.43  350.51   67.56  364.95    65.7
  450.73   60.93  455.91   60.33  471.74   59.51  476.12   58.49  483.13   59.41
   496.1   59.23  515.77   58.26  521.78   58.84  531.43    57.9  550.68   58.28
  557.76   57.61  593.69   57.17  600.96   57.41  610.99   57.02  624.21   57.09
  655.33   56.45  669.55   56.58  689.21   56.31  697.71   56.48  730.04   56.17
  755.86   56.09  816.16   56.85  836.02   57.04  878.62   58.07  887.98   57.98
  919.84   58.83  935.28    59.5  970.68   61.65  997.9562.52456 1007.98   63.07
 1014.58   64.62 1022.22   65.54 1037.27    69.2 1047.95    70.1    1049    70.8
#Mann= 4 ,-1 , 0 
     327    .023       0  550.68    .023       0  816.16    .023       0
  997.95    .023       0
Bank Sta=327,1049
XS Rating Curve= 0 ,0
Exp/Cntr=0.3,0.1

Type RM Length L Ch R = 1 ,1108.680,914.27,756.27,612.14
BEGIN DESCRIPTION:
00082 D-92
END DESCRIPTION:
XS GIS Cut Line=2
      7499123.37      4952802.39      7499802.01      4951870.34
Node Last Edited Time=Dec/18/2015 15:18:34
#Sta/Elev= 45 
      59   70.49      68   70.09  191.43   69.41   208.1   68.74  224.71   67.19
  249.69    65.7  289.66   65.24   306.5   64.45  329.19    63.2  330.91   63.53
  349.82   63.15  364.03   61.95  381.59   62.28  395.25   61.46   414.6    60.9
  446.85   61.05  459.29   60.42   473.8   59.87  479.33   60.59  504.45   59.77
  511.31   59.93   542.7   59.58  648.36    58.9  689.58   58.75  716.27   58.27
  724.32   58.49  782.89   57.87  813.49   57.45  846.83   57.51  890.09   57.92
  914.86   58.38  927.38   58.94  936.83   59.85  944.27    61.7  950.88   62.51
  976.52    63.9 1000.65   63.99 1033.0864.58732 1050.07   65.04 1064.66   65.95
 1072.05   67.53  1078.3   67.88 1080.94   69.19  1107.970.68734 1107.94   70.69
#Mann= 4 ,-1 , 0 
      59    .023       0  459.29    .023       0  782.89    .023       0
 1033.08    .023       0
Bank Sta=59,1107.9
XS Rating Curve= 0 ,0
Exp/Cntr=0.3,0.1

Type RM Length L Ch R = 1 ,1107.960,927.79,786.97,662.9
BEGIN DESCRIPTION:
00083 PA-35A
END DESCRIPTION:
XS GIS Cut Line=2
      7499805.07      4953653.84      7500345.11      4952111.75
Node Last Edited Time=Dec/18/2015 15:18:34
#Sta/Elev= 35 
     420   71.09     431   70.09  500.38   68.98  575.72   65.22  655.21   64.73
  695.07   65.33  716.52   64.85  756.55   64.58  763.85   65.13  798.88   64.39
  842.29   64.14  869.08   63.55  876.53   63.87  947.44   62.62  968.04   62.92
  972.61   62.29 1054.61   60.76  1114.7   60.05 1115.55   59.72 1157.64   59.29
 1181.62   58.62 1208.62   58.61 1231.82   59.38 1268.17   60.05 1285.97   59.31
 1344.82   59.75 1366.62   62.49 1390.17   58.44 1466.71   58.68 1493.5558.35046
 1511.67   57.23 1526.97   61.53 1543.55    69.4  1572.970.08952 1572.92   70.09
#Mann= 4 ,-1 , 0 
     420    .023       0  798.88    .023       0 1181.62    .023       0
 1493.55    .023       0
Bank Sta=420,1572.9
XS Rating Curve= 0 ,0
Exp/Cntr=0.3,0.1

Type RM Length L Ch R = 1 ,1107.220,891.45,896.6,885.64
BEGIN DESCRIPTION:
00084 D-91
END DESCRIPTION:
XS GIS Cut Line=2
      7500809.51       4953771.3      7500951.63      4952313.18
Node Last Edited Time=Dec/18/2015 15:18:34
#Sta/Elev= 40 
     184   70.08  229.38   69.23     256   67.91  268.56    65.9  277.22   62.42
  304.55   63.86  321.37   64.16  359.57   66.55  410.99   67.68  424.61   67.19
  431.89   67.83  564.79   67.59  567.65   67.42  578.94   67.53  646.53   66.64
  705.08   65.13  710.18   65.54  744.65   64.44  795.61   63.49  838.27   62.48
  973.73   60.21 1036.05   58.74 1053.37   57.98 1060.67   58.78 1082.05   57.71
 1117.26      57 1167.98   56.46 1214.66   56.52 1229.54   57.47 1250.51    57.9
 1277.79   57.82  1298.5   60.35  1315.3   61.65  1338.1    64.8 1351.0364.79616
 1369.26   64.33 1383.64   66.04 1388.17   69.18    141870.87859 1418.03   70.88
#Mann= 4 ,-1 , 0 
     184    .023       0  567.65    .023       0  973.73    .023       0
 1351.03    .023       0
Bank Sta=184,1418
XS Rating Curve= 0 ,0
Exp/Cntr=0.3,0.1

Type RM Length L Ch R = 1 ,1106.350,1144.31,913.36,754.56
BEGIN DESCRIPTION:
00085 PA-35
END DESCRIPTION:
XS GIS Cut Line=2
      7501712.57      4953701.61      7501835.84      4952351.24
Node Last Edited Time=Dec/18/2015 15:18:34
#Sta/Elev= 50 
      29   70.07   84.35   69.28   99.53   67.17  104.88   65.35  121.44    64.9
  137.98   60.73  143.11   60.89   153.7   59.81  165.06   60.82  177.47   61.27
  199.35   63.07  227.17   67.05  239.56   67.75  242.56   69.27  254.98   70.47
     425   70.37  437.66    69.4  446.39   69.41  499.39   67.46  554.27   66.32
  574.72   66.29  593.29   66.83  607.99   65.61  633.59   64.85  640.39   63.74
  648.96   63.74  678.44   62.41  741.69   60.86  749.71   60.43  783.98   59.65
  807.92   58.88  842.75   59.15  858.68   58.29  889.14   58.72  898.15   58.52
  915.37   57.85  928.71   58.27  935.01   57.95  965.31   58.24 1021.63   58.35
 1053.01   57.48 1114.25   58.53 1150.62    58.7 1181.29   58.64 1210.1857.57941
 1216.43   56.71 1229.88   59.28 1249.17   63.65  1259.1   68.93    1285   70.07
#Mann= 4 ,-1 , 0 
      29    .023       0  554.27    .023       0  898.15    .023       0
 1210.18    .023       0
Bank Sta=29,1285
XS Rating Curve= 0 ,0
Exp/Cntr=0.3,0.1

Type RM Length L Ch R = 1 ,1105.460,544.52,558.06,564.12
BEGIN DESCRIPTION:
00086 D-90
END DESCRIPTION:
XS GIS Cut Line=2
      7502885.52      4953536.15      7502551.22      4952271.53
Node Last Edited Time=Dec/18/2015 15:18:34
#Sta/Elev= 40 
     157   70.86  167.96   68.88  174.67   65.27  193.81   61.33  214.88   58.96
  227.28   59.36  246.61   61.85   286.7   66.07  312.45   67.98  321.76   69.21
  349.06   70.36     421   70.36  460.14   68.42  469.71   65.64  481.84   64.36
  490.15   64.78  521.16   62.82  550.23   62.28  604.05   60.96   651.7   60.93
  665.16   60.05  720.54   58.96  741.16   60.41  765.73   61.08  788.57   60.56
  813.81   58.75  888.81    57.8  893.49   58.47  910.43    58.4  952.06   58.71
  974.49   58.59 1004.45   57.88 1105.26   59.21 1133.08    58.9 1161.49   60.28
 1172.13   62.24 1183.21   66.71 1196.0669.07228 1233.06   70.06  1246.1   70.86
#Mann= 4 ,-1 , 0 
     157    .023       0  550.23    .023       0  910.43    .023       0
 1196.06    .023       0
Bank Sta=157,1246.1
XS Rating Curve= 0 ,0
Exp/Cntr=0.3,0.1

Type RM Length L Ch R = 1 ,1104.910,577.99,575.15,582.99
BEGIN DESCRIPTION:
00087 PA-34B
END DESCRIPTION:
XS GIS Cut Line=2
      7503405.03      4953388.25      7503103.04      4952145.04
Node Last Edited Time=Dec/18/2015 15:18:34
#Sta/Elev= 35 
     145    70.5  167.97   69.36  172.01   67.26  192.37    64.9  234.88   63.65
  286.71   60.93  305.27   60.93  324.57   62.07  345.36   64.66  372.52    64.2
  397.61   64.58  411.91   63.76  446.55   62.99   512.3   62.51  545.41   61.67
  583.08   61.45  675.91   59.93  722.72   58.38  761.39   58.75  803.85   59.83
  820.72   59.39  827.03   60.62  879.27   60.24  900.36   60.05   973.9   61.03
 1029.08   61.37 1062.58   60.78 1086.82   58.91  1109.8   54.95 1124.17    54.7
  1145.2   62.64  1171.6   68.14 1189.3669.39948 1226.32   69.41  1239.4    70.6
#Mann= 4 ,-1 , 0 
     145    .023       0   512.3    .023       0  879.27    .023       0
 1189.36    .023       0
Bank Sta=145,1239.4
XS Rating Curve= 0 ,0
Exp/Cntr=0.3,0.1

Type RM Length L Ch R = 1 ,1104.350,320.59,402.61,506.74
BEGIN DESCRIPTION:
00088 PA-34A
END DESCRIPTION:
XS GIS Cut Line=2
      7503945.61      4953226.88      7503673.02      4952014.67
Node Last Edited Time=Dec/18/2015 15:18:34
#Sta/Elev= 45 
     165   71.69  173.26    69.4  180.49    68.8  184.08   65.56  196.68    64.7
  208.86   62.64  255.66   58.91  265.93   59.16  292.71   58.35  318.91   59.63
   372.7   61.39  382.64   61.28  429.66   61.99  467.59   62.11  507.09   62.04
  517.69   61.61  529.57    61.8  558.78   60.74  569.82   60.64  627.08   58.44
  647.73   58.01  667.37   58.48  688.69   57.15  719.72   57.51  746.67   57.08
  771.44   57.66  809.87   60.84  844.04    61.2  861.99   61.08   877.5   59.83
  890.18   59.55  929.79   59.49  939.92   59.17  968.88   59.05  986.88   59.38
  1005.2   60.54 1039.89   62.16 1048.07   63.25 1058.28   63.68 1060.78   64.46
 1085.48 66.2309 1099.76    66.4 1110.75   67.54 1116.39   69.13  1135.5   70.39
#Mann= 4 ,-1 , 0 
     165    .023       0  467.59    .023       0  809.87    .023       0
 1085.48    .023       0
Bank Sta=165,1135.5
XS Rating Curve= 0 ,0
Exp/Cntr=0.3,0.1

Type RM Length L Ch R = 1 ,1103.940,819.5,857.65,911.39
BEGIN DESCRIPTION:
00089 D-89A
END DESCRIPTION:
XS GIS Cut Line=2
      7504222.62      4953146.24      7504200.01      4952068.04
Node Last Edited Time=Dec/18/2015 15:18:34
#Sta/Elev= 40 
     150   71.59     153   70.09  162.24   68.96  171.47   65.04  181.96   60.67
  195.58   58.75  210.54   57.99   229.8   58.13  241.19   57.73  274.65    57.9
  304.84   59.15  336.76   59.94  355.72   60.73  400.85   61.48  438.36      61
   475.4   60.13  515.04   58.65   553.8   58.43  572.32   59.08  588.79    60.2
   595.6   61.35  607.77   60.98  627.24   58.74  638.85   58.46  652.14   58.94
  659.62   57.76  721.41   56.67  728.95   56.73  751.97   56.61  801.02   59.27
  840.38   60.77  884.38   61.99  918.68   62.11   940.2   62.51  960.4462.32879
  983.37    62.7  997.51   66.35 1005.69   69.37  1014.4  70.586 1014.44   70.59
#Mann= 4 ,-1 , 0 
     150    .023       0  438.36    .023       0  728.95    .023       0
  960.44    .023       0
Bank Sta=150,1014.4
XS Rating Curve= 0 ,0
Exp/Cntr=0.3,0.1

Type RM Length L Ch R = 1 ,1103.100,282.86,255.93,220.86
BEGIN DESCRIPTION:
00090 D-89
END DESCRIPTION:
XS GIS Cut Line=2
      7505023.25      4953117.47      7505130.27      4951980.37
Node Last Edited Time=Dec/18/2015 15:18:34
#Sta/Elev= 50 
     162   71.18   162.1   70.18  170.62   69.38  177.39   65.23  193.33   60.77
  211.29   60.63  228.13   60.09  231.55    59.6  247.72    59.3   262.7   57.05
  276.51   57.39  286.66   56.92  328.81   57.79  351.01   57.22  369.06   55.63
  386.42   55.84   403.2   55.65  408.79   57.65  412.73   59.48  422.78   58.53
  439.16   58.04  471.28   57.96  477.03   57.66  505.65   57.73  532.71   57.35
   547.4   57.51  552.53   58.01   561.5    57.6  592.11   58.16  605.13   58.09
  619.44    58.6  629.03   58.11  646.26   58.08  681.75   58.63  716.75   58.54
  762.44   58.77  786.22   58.36  794.52    58.1   811.8   58.06  841.98    56.6
  851.48   56.55  860.02   57.24  870.11   58.97  888.1359.58453   894.1   59.74
  913.28   63.08   921.4   67.59  940.13   70.38   942.171.06949  942.13   71.08
#Mann= 4 ,-1 , 0 
     162    .023       0  408.79    .023       0  681.75    .023       0
  888.13    .023       0
Bank Sta=162,942.1
XS Rating Curve= 0 ,0
Exp/Cntr=0.3,0.1

Type RM Length L Ch R = 1 ,1102.850,663.96,789.13,975.41
BEGIN DESCRIPTION:
00091 PA-34
END DESCRIPTION:
XS GIS Cut Line=2
      7505317.17      4953101.51      7505333.76      4952075.48
Node Last Edited Time=Dec/18/2015 15:18:34
#Sta/Elev= 55 
     146   70.58  159.29   69.37  163.76   66.27  172.94   63.84  180.09   60.24
     187   59.14  196.59   58.77  202.49   57.55  226.49   56.92   228.7   56.41
  248.39   55.79  268.32    54.8  281.87   56.33  295.62   58.82  303.19   59.09
  311.69   58.81  326.58   57.02  341.93      57  364.64   57.58  388.42   56.78
  396.92   56.92  429.91   57.18  438.29   58.78  442.07   58.04  459.19   57.31
  469.23   57.16  491.43    57.2  502.01    56.9  532.09    57.3  544.75   57.88
  554.39   59.21  567.84   59.89  582.63   59.89  589.18   59.39  609.32   59.08
  623.31   59.13  652.44   58.73  673.15   58.62  707.32   58.04  725.91   58.21
  730.06   57.92  758.44   57.73  773.59   57.86  784.26   58.26  808.08   58.21
  815.29   57.68  842.52   57.21  852.22   57.83  857.91   57.74  862.57   58.38
  866.1659.70446  869.61    60.9  885.16   69.41  915.66   70.37   916.2   71.36
#Mann= 4 ,-1 , 0 
     146    .023       0  396.92    .023       0  652.44    .023       0
  866.16    .023       0
Bank Sta=146,916.2
XS Rating Curve= 0 ,0
Exp/Cntr=0.3,0.1

Type RM Length L Ch R = 1 ,1101.980,0,0,0
BEGIN DESCRIPTION:
00092 D-88
END DESCRIPTION:
XS GIS Cut Line=2
      7505887.36      4953275.11      7506367.02      4952048.76
Node Last Edited Time=Dec/18/2015 15:18:34
#Sta/Elev= 45 
     281   70.57     284   70.37   294.6   66.75  299.64   63.36  310.04   60.68
  319.62   59.78  327.87   60.24  342.92   59.06  346.65   58.31  382.67   56.44
  409.84   55.97  421.69   55.55  430.43   55.71  459.31   55.58  485.92   56.07
  499.08   55.19  527.15   54.44   541.8   54.66   556.5   57.26  566.51   56.11