Geom Title=Test 3 - SmederevskaAda - Q = 2000 m3/s
Program Version=4.00
Viewing Rectangle= 7482122.65 , 7503932.06 , 4953853.86 , 4945433.07 

Junct Name=Smederevo1      
Junct Desc=Grananje toka na dva rukavca (Smederevo), 0 , 0 ,-1 
Junct X Y & Text X Y=7491788.5,4946970,7491523,4946822
Up River,Reach=Dunav           ,DunavGrockaSmed 
Dn River,Reach=Dunav           ,DunavSmederevo2 
Dn River,Reach=Dunav           ,DunavSmederevo1 
Junc L&A=618.09,
Junc L&A=575.52,

Junct Name=Smederevo2      
Junct Desc=Spajanje rukavaca, 0 , 0 ,-1 
Junct X Y & Text X Y=7496927,4950486.5,7497378,4950468.5
Up River,Reach=Dunav           ,DunavSmederevo2 
Up River,Reach=Dunav           ,DunavSmederevo1 
Dn River,Reach=Dunav           ,DunavSmedUVMD   
Junc L&A=649.55,
Junc L&A=714.26,

River Reach=Dunav           ,DunavGrockaSmed 
Reach XY= 8 
7482377.92856015 4946136.42775677483995.22247936  4946012.698422
     7484787.159     4945977.288     7485874.545     4946024.246
     7487243.514      4945934.53     7488687.264     4946106.491
     7490816.774     4946468.037       7491788.5        4946970.
Rch Text X Y=7485760.4434441,4947618.4684445
Reverse River Text= 0 

Type RM Length L Ch R = 1 ,1127.87 ,118.207,88.44,85.8
BEGIN DESCRIPTION:
Slozeni presek
END DESCRIPTION:
XS GIS Cut Line=2
  7482696.417294  4946990.459081 7482336.4645659 4945802.1081777
Node Last Edited Time=Dec/18/2015 13:55:12
#Sta/Elev= 91 
  69.636  72.158  77.282  68.594  81.054   66.27  88.724  62.809  89.133  62.847
  92.902   63.34  106.12  59.212 113.468  58.729 115.281   58.97 122.648  60.029
 141.661  60.504 141.727  60.512 147.283  60.993 148.291  61.136  155.54  64.241
 155.757  64.323 161.134  65.072 161.835  65.407   169.5  69.463 177.432  69.602
   205.9  69.322  219.39  69.523 226.076  69.361 250.406  69.538 259.471  69.415
 286.095  69.566  293.52  69.457 318.062  69.584  334.39  70.195 337.083  70.864
 344.313  71.333 394.195  71.356 418.285   69.81 421.338  68.916 445.557  67.908
 447.174  68.236 498.857  67.327  536.39  67.084  544.52  66.851 562.462  65.869
 572.673  64.886 575.155  64.762 590.033  63.505 610.494  62.064 650.931  59.532
 663.568  58.698 674.446  58.395 699.837  57.927 703.404  58.548 705.785   58.28
 711.834  57.585 716.729  58.091 752.302  58.279 755.295  58.032 773.489  56.684
 796.251  56.281 808.141  56.032 813.036  56.198 842.932  55.348 855.004  55.244
 869.479   55.28 869.807  55.281 876.233  55.245 907.886    54.4 925.541  54.753
 931.527  55.049 948.391  56.155  949.37   56.39 965.183  60.664 973.127  61.773
 974.386  61.885 998.382  62.1051022.699  64.3741022.743  64.3781053.497  65.169
1072.754  65.1661072.856  65.1661079.776  64.789 1109.88  64.6421128.008  64.952
1132.466  65.0221139.903  64.0491158.339   63.481163.955  63.9591177.435  65.113
1191.977  66.8591198.286  67.856 1209.07  68.6511210.269  68.7181228.136  71.172
1228.166  71.176
#Mann= 3 , 0 , 0 
  69.636    .023       0  69.636    .023       01228.166    .023       0
Bank Sta=69.636,1228.166
XS Rating Curve= 0 ,0
Exp/Cntr=0.3,0.1

Type RM Length L Ch R = 1 ,1127.78*,118.207,88.44,85.8
XS GIS Cut Line=2
  7482787.6881964946949.332720677482420.74637727 4945785.0954518
Node Last Edited Time=Dec/18/2015 13:55:12
#Sta/Elev= 91 
  69.091  72.175  76.567  68.391  80.256  66.146  87.756  62.426  88.156  62.478
  91.841   63.05 104.766  58.468 111.952  57.959 113.725  58.239 120.928  59.426
  139.52  59.949 139.585  59.959 145.018  60.603 146.004  60.757 153.093    64.2
 153.304  64.295 158.562  65.221 159.248  65.609 166.743  70.112   174.5  70.206
 202.338  70.023 215.529  70.159 222.067  70.052 245.858  70.174 254.722  70.093
 280.757  70.198 288.018  70.126 312.016  70.215 327.983  70.624 330.616  71.071
 337.686  71.385 386.463  71.407  410.02  69.667 413.005  68.661 436.687  67.525
 438.269  67.894 488.808  66.868  525.51  66.593  533.46   66.33 551.005  65.437
  560.99  64.647 563.416  64.531 577.965   63.26 597.973  61.836 637.515  59.231
 649.872  58.389 660.509  58.131 685.338  57.688 688.826  58.399 691.154  58.105
 697.069   57.35 701.856  57.941 736.641  58.309 739.568  58.045 757.359  56.539
 779.617    56.1 791.244  55.845  796.03  56.042 825.264  55.149  837.07  55.057
 851.224  55.054 851.544  55.054 857.828  54.992 888.781   54.24  906.35  54.572
 912.308  54.883  929.09   55.94 930.065  56.194 945.802  60.609 953.708  61.659
  954.96  61.783 978.841   61.991003.042  64.5011003.085  64.5051033.691  65.366
1052.856  65.3441052.957  65.3441059.844  64.8991089.803  64.6451107.844   64.94
 1112.28  65.0081119.682  63.8961138.029  63.2131143.618  63.7391157.033  65.003
1171.506  66.9311177.783  67.9271188.516  68.6071189.708  68.669 1207.49  71.216
1207.521  71.221
#Mann= 2 , 0 , 0 
  69.091    .023       01207.521    .023       0
Bank Sta=69.091,1207.521
XS Rating Curve= 0 ,0
Exp/Cntr=0.3,0.1

Type RM Length L Ch R = 1 ,1127.69*,118.207,88.44,85.8
XS GIS Cut Line=2
  7482878.9590984946908.206360337482505.02818863 4945768.0827259
Node Last Edited Time=Dec/18/2015 13:55:12
#Sta/Elev= 91 
  68.545  72.193  75.853  68.187  79.458  66.023  86.788  62.043  87.179  62.109
   90.78   62.76 103.413  57.724 110.436   57.19 112.169  57.507 119.209  58.823
  137.38  59.395 137.444  59.405 142.754  60.213 143.717  60.379 150.645  64.158
 150.852  64.268 155.991  65.371 156.662  65.812 163.986  70.761 171.568   70.81
 198.775  70.725 211.668  70.796 218.058  70.744  241.31   70.81 249.974  70.772
 275.419   70.83 282.515  70.796  305.97  70.845 321.575  71.054 324.149  71.278
 331.059  71.436 378.732  71.459 401.755  69.523 404.672  68.405 427.819  67.143
 429.365  67.552 478.759  66.409  514.63  66.101   522.4  65.808 539.548  65.006
 549.306  64.408 551.678  64.301 565.898  63.015 585.453  61.607 624.099   58.93
 636.176  58.079 646.573  57.866 670.839  57.449 674.248  58.249 676.524   57.93
 682.304  57.115 686.983   57.79  720.98   58.34 723.841  58.058  741.23  56.395
 762.984  55.919 774.347  55.657 779.025  55.886 807.597  54.949 819.135   54.87
 832.969  54.828 833.282  54.827 839.424  54.738 869.675   54.08  887.16  54.391
 893.089  54.717  909.79  55.725  910.76  55.997 926.421  60.555 934.289  61.546
 935.535  61.682   959.3  61.875 983.384  64.628 983.428  64.6331013.885  65.563
1032.958  65.5221033.058  65.5221039.912   65.011069.727  64.6471087.681  64.927
1092.095  64.9941099.461  63.743 1117.72  62.9471123.282  63.5191136.631  64.894
1151.034  67.0041157.282  67.9991167.963  68.5641169.149  68.6191186.845  71.261
1186.875  71.265
#Mann= 2 , 0 , 0 
  68.545    .023       01186.875    .023       0
Bank Sta=68.545,1186.875
XS Rating Curve= 0 ,0
Exp/Cntr=0.3,0.1

Type RM Length L Ch R = 1 ,1127.6  ,95,95,95
BEGIN DESCRIPTION:
Slozeni presek
END DESCRIPTION:
XS GIS Cut Line=2
      7482970.23      4946867.08      7482589.31      4945751.07
Node Last Edited Time=Dec/18/2015 13:55:12
#Sta/Elev= 50 
      68   72.21   85.82   61.66   89.72   62.47  102.06   56.98  108.92   56.42
  117.49   58.22  135.24   58.84  141.43      60   148.4   64.24  153.42   65.52
  161.23   71.41     371   71.51  393.49   69.38  396.34   68.15  418.95   66.76
  420.46   67.21  468.71   65.95  503.75   65.61  539.94   64.07  553.83   62.77
  622.48   57.77  656.34   57.21  659.67    58.1  667.54   56.88  672.11   57.64
  705.32   58.37   725.1   56.25  757.45   55.47  762.02   55.73  789.93   54.75
  815.02    54.6  850.57   53.92  867.97   54.21  890.49   55.51  907.04    60.5
  916.11   61.58  939.76   61.76  963.77   64.76  994.08   65.76 1013.16    65.7
 1019.98   65.12 1049.65   64.65 1071.91   64.98 1079.24   63.59 1097.41   62.68
 1116.2364.78421 1136.78   68.07 1148.59   68.57  1166.271.30527 1166.23   71.31
#Mann= 3 , 0 , 0 
      68    .023       0      68    .023       0 1166.23    .023       0
Bank Sta=68,1166.23
XS Rating Curve= 0 ,0
XS HTab Starting El and Incr=54.07,0.3, 60 
Exp/Cntr=0.3,0.1

Type RM Length L Ch R = 1 ,1127.50*,95,95,95
XS GIS Cut Line=2
   7483048.25625    4946863.2825   7482692.72375      4945740.03
Node Last Edited Time=Dec/18/2015 13:55:12
#Sta/Elev= 92 
      95  72.084 108.318   64.36 112.472  62.063 116.296  62.678 116.941  62.406
 128.394  57.724  135.12  57.154 138.569   57.76 143.523  58.744 148.715  58.963
 160.926  59.293 161.429  59.375 166.995  60.313 173.829  64.032 178.751  65.158
 186.408  70.322 200.756  70.346 208.403  70.499 215.748  70.856 219.745  71.273
 225.556  71.425 363.457  71.472 382.203  71.236 392.078  71.226 395.021  70.973
 414.129  69.168 416.556  68.209 416.923  68.062 439.091  66.543 440.572  66.917
 446.818  66.686 486.785  65.434 487.879  65.403 522.234   64.91 525.078  64.786
 557.717  63.455 571.335   62.28 587.741  61.167 624.756  58.535  626.65  58.252
 638.644  57.383  644.57  57.251 671.842  56.969 675.107  57.762 682.823  56.729
 686.768  57.332 687.304  57.417 711.138  58.146 719.865  58.359 734.579  57.021
 739.258  56.563 757.962  56.116 770.976  55.634 775.301  55.786 775.457  55.794
 788.038  55.386 799.938  54.674 802.821  54.569 820.846  54.384 827.421   54.26
 835.895      54 862.276  53.494 873.703  53.823 879.066  54.015 900.797  55.605
 906.265  57.214 916.766  60.338 925.518  61.495  940.61  61.963 948.339  62.045
  957.16  63.078 964.683  64.077 971.507  64.851 992.981  65.4951000.755  65.706
1019.166  65.6031025.746  65.0771042.307  64.7931054.376  64.6871066.299  64.914
1075.856  65.0671082.929  63.8681099.813  63.1441100.462  63.1171118.622  65.047
1132.201  67.0811138.451  68.1141144.137  68.4471149.847  68.7251166.815  71.288
 1166.84  71.2921166.869  71.296
#Mann= 2 , 0 , 0 
      95    .023       01166.869    .023       0
Bank Sta=95,1166.869
XS Rating Curve= 0 ,0
XS HTab Starting El and Incr=53.64,0.3, 62 
Exp/Cntr=0.3,0.1

Type RM Length L Ch R = 1 ,1127.41*,95,95,95
XS GIS Cut Line=2
    7483126.2825     4946859.485    7482796.1375      4945728.99
Node Last Edited Time=Dec/18/2015 13:55:12
#Sta/Elev= 92 
     122  71.957 135.053  64.551 139.123  62.466 142.871  62.887 143.504  62.635
 154.729  58.467 161.321  57.889 164.701  58.362 169.556  59.267 174.644  59.521
 186.612  59.747 187.105  59.815  192.56  60.627 199.257  63.824 204.081  64.797
 211.586  69.234 225.648  69.275 233.142  69.578 240.341  70.288 244.259   71.12
 249.954  71.422 385.106  71.447 403.478  70.966 413.157  70.941 416.041  70.719
 434.768  68.956 437.147  68.106 437.507  67.975 459.233  66.326 460.684  66.623
 466.806  66.328 505.976  64.889 507.048  64.855 540.718   64.21 543.505  64.085
 575.494   62.84 588.841  61.789 604.919  60.783 641.196  58.269 643.053  57.843
 654.808  56.996 660.616  56.833 687.344  56.728 690.544  57.425 698.106  56.578
 701.973  57.114 702.498  57.194 725.857  58.118  734.41  58.348 748.831  57.281
 753.417  56.875 771.747  56.443 784.502  55.797 788.741  55.851 788.894  55.857
 801.224  55.492 812.887  54.495 815.713  54.389 833.378  54.128 839.822  53.919
 848.128  53.566 873.982  53.067 884.994  53.528 890.162  53.821 911.103    55.7
 916.373  57.209 926.493  60.177 934.927  61.409  949.47  62.227 956.918  62.331
 965.418  63.254 972.669  64.277 979.245  64.941 999.938  65.4961007.429  65.652
1025.171  65.5051031.513  65.0341047.471  64.7391059.102  64.7251070.592  64.995
1079.802  65.1531086.617  64.1461102.889  63.5741103.513  63.5551121.014  65.309
  1134.1  67.1281140.123  68.1581145.602  68.5751151.104  68.8791167.456  71.274
1167.479  71.2781167.507  71.283
#Mann= 2 , 0 , 0 
     122    .023       01167.507    .023       0
Bank Sta=122,1167.507
XS Rating Curve= 0 ,0
XS HTab Starting El and Incr=53.22,0.3, 63 
Exp/Cntr=0.3,0.1

Type RM Length L Ch R = 1 ,1127.31*,95,95,95
XS GIS Cut Line=2
   7483204.30875    4946855.6875   7482899.55125      4945717.95
Node Last Edited Time=Dec/18/2015 13:55:12
#Sta/Elev= 92 
     149  71.831 161.787  64.743 165.775   62.87 169.447  63.095 170.067  62.864
 181.063  59.211 187.521  58.623 190.832  58.963 195.588  59.791 200.573  60.079
 212.298    60.2  212.78  60.254 218.125   60.94 224.686  63.616 229.412  64.435
 236.764  68.145  250.54  68.204 257.882  68.657 264.934   69.72 268.772  70.966
 274.352  71.418 406.755  71.423 424.753  70.697 434.235  70.657 437.061  70.466
 455.407  68.744 457.737  68.004  458.09  67.887 479.374  66.109 480.796   66.33
 486.793   65.97 525.166  64.344 526.217  64.308 559.202   63.51 561.933  63.384
 593.271  62.225 606.346  61.299 622.098    60.4 657.637  58.002 659.456  57.434
 670.971  56.609 676.662  56.414 702.846  56.487 705.981  57.087  713.39  56.427
 717.177  56.897 717.692  56.971 740.576   58.09 748.955  58.337 763.082  57.541
 767.575  57.188 785.533  56.769 798.028  55.961 802.181  55.916  802.33  55.921
  814.41  55.598 825.836  54.316 828.604  54.208  845.91  53.871 852.223  53.579
  860.36  53.132 885.689  52.641 896.285  53.233 901.258  53.626  921.41  55.795
  926.48  57.204 936.219  60.015 944.335  61.324  958.33  62.491 965.497  62.616
 973.677   63.43 980.654  64.478 986.982  65.0321006.895  65.4961014.104  65.598
1031.177  65.4081037.279  64.9911052.636  64.6841063.829  64.7621074.885  65.076
1083.747   65.241090.306  64.4241105.964  64.0041106.565  63.9921123.405  65.571
1135.998  67.1751141.794  68.2011147.066  68.7021152.362  69.0341168.097   71.26
1168.119  71.2641168.146  71.269
#Mann= 2 , 0 , 0 
     149    .023       01168.146    .023       0
Bank Sta=149,1168.146
XS Rating Curve= 0 ,0
XS HTab Starting El and Incr=52.79,0.3, 64 
Exp/Cntr=0.3,0.1

Type RM Length L Ch R = 1 ,1127.22*,95,95,95
XS GIS Cut Line=2
     7483282.335      4946851.89     7483002.965      4945706.91
Node Last Edited Time=Dec/18/2015 13:55:12
#Sta/Elev= 92 
     176  71.705 188.522  64.934 192.427  63.273 196.022  63.303 196.629  63.093
 207.397  59.955 213.721  59.358 216.964  59.564 221.621  60.315 226.503  60.637
 237.984  60.653 238.456  60.693  243.69  61.253 250.115  63.408 254.743  64.073
 261.942  67.057 275.432  67.133 282.622  67.735 289.527  69.152 293.286  70.813
 298.749  71.415 428.404  71.398 446.029  70.428 455.314  70.372 458.081  70.213
 476.046  68.531 478.328  67.901 478.673    67.8 499.516  65.893 500.908  66.037
 506.781  65.612 544.357    63.8 545.386   63.76 577.687   62.81  580.36  62.683
 611.048   61.61 623.852  60.808 639.276  60.016 674.078  57.736 675.858  57.025
 687.135  56.222 692.707  55.995 718.348  56.246 721.418  56.749 728.673  56.275
 732.382   56.68 732.885  56.749 755.295  58.062 763.499  58.326 777.334  57.801
 781.733  57.501 799.318  57.095 811.554  56.124  815.62   55.98 815.767  55.984
 827.596  55.705 838.785  54.137 841.495  54.028 858.442  53.615 864.624  53.239
 872.592  52.697 897.395  52.215 907.576  52.939 912.355  53.431 931.716   55.89
 936.588  57.199 945.945  59.854 953.743  61.238  967.19  62.755 974.076  62.902
 981.936  63.606 988.639  64.678 994.719  65.1221013.852  65.4971020.778  65.544
1037.182  65.3111043.046  64.9481057.801  64.6291068.555  64.7991079.178  65.157
1087.693  65.3261093.995  64.7021109.039  64.4341109.617  64.4291125.797  65.834
1137.896  67.2221143.465  68.2451148.531   68.831153.619  69.1881168.737  71.247
1168.759   71.251168.785  71.255
#Mann= 2 , 0 , 0 
     176    .023       01168.785    .023       0
Bank Sta=176,1168.785
XS Rating Curve= 0 ,0
XS HTab Starting El and Incr=52.36,0.3, 65 
Exp/Cntr=0.3,0.1

Type RM Length L Ch R = 1 ,1127.12*,95,95,95
XS GIS Cut Line=2
   7483360.36125    4946848.0925   7483106.37875      4945695.87
Node Last Edited Time=Dec/18/2015 13:55:12
#Sta/Elev= 92 
     203  71.579 215.256  65.126 219.079  63.676 222.598  63.512 223.192  63.323
 233.732  60.699 239.921  60.092 243.095  60.166 247.654  60.838 252.432  61.196
  263.67  61.107 264.132  61.132 269.255  61.567 275.544    63.2 280.073  63.711
  287.12  65.969 300.324  66.063 307.361  66.814  314.12  68.584 317.799   70.66
 323.147  71.411 450.053  71.374 467.304  70.158 476.392  70.088 479.101   69.96
 496.685  68.319 498.918  67.798 499.256  67.712 519.657  65.676 521.019  65.743
 526.768  65.254 563.548  63.255 564.555  63.213 596.171   62.11 598.788  61.982
 628.824  60.995 641.357  60.318 656.455  59.632 690.518  57.469 692.261  56.617
 703.299  55.835 708.753  55.576  733.85  56.006 736.855  56.411 743.956  56.124
 747.586  56.462 748.079  56.526 770.014  58.034 778.044  58.315 791.585  58.061
 795.891  57.814 813.104  57.421  825.08  56.288  829.06  56.045 829.204  56.048
 840.782  55.811 851.734  53.957 854.387  53.847 870.974  53.359 877.025  52.899
 884.824  52.263 909.101  51.789 918.867  52.644 923.451  53.237 942.023  55.985
 946.696  57.194 955.672  59.692 963.152  61.153  976.05  63.018 982.656  63.187
 990.194  63.782 996.624  64.8791002.456  65.2131020.809  65.4981027.453   65.49
1043.188  65.2131048.812  64.9051062.966  64.5741073.281  64.8361083.471  65.237
1091.639  65.4131097.684   64.981112.114  64.8641112.668  64.8671128.189  66.096
1139.795  67.2691145.137  68.2891149.996  68.9571154.876  69.3431169.378  71.233
1169.399  71.2371169.424  71.241
#Mann= 2 , 0 , 0 
     203    .023       01169.424    .023       0
Bank Sta=203,1169.424
XS Rating Curve= 0 ,0
XS HTab Starting El and Incr=51.94,0.3, 66 
Exp/Cntr=0.3,0.1

Type RM Length L Ch R = 1 ,1127.03*,95,95,95
XS GIS Cut Line=2
    7483438.3875     4946844.295    7483209.7925      4945684.83
Node Last Edited Time=Dec/18/2015 13:55:12
#Sta/Elev= 92 
     230  71.452 241.991  65.317  245.73  64.079 249.173   63.72 249.755  63.552
 260.066  61.442 266.122  60.826 269.227  60.767 273.687  61.362 278.361  61.754
 289.356   61.56 289.808  61.572  294.82   61.88 300.972  62.992 305.404   63.35
 312.298  64.881 325.216  64.992 332.101  65.893 338.714  68.016 342.313  70.507
 347.545  71.407 471.702  71.349 488.579  69.889 497.471  69.803  500.12  69.706
 517.324  68.107 519.509  67.695  519.84  67.625 539.798  65.459 541.131   65.45
 546.755  64.896 582.739   62.71 583.724  62.665 614.655  61.409 617.215  61.282
 646.601  60.381 658.863  59.827 673.633  59.248 706.959  57.203 708.664  56.208
 719.463  55.448 724.799  55.158 749.353  55.765 752.292  56.074 759.239  55.973
 762.791  56.245 763.273  56.303 784.732  58.006 792.589  58.303 805.837   58.32
  810.05  58.126 826.889  57.748 838.607  56.452   842.5   56.11 842.641  56.111
 853.968  55.917 864.682  53.778 867.278  53.667 883.506  53.103 889.426  52.558
 897.056  51.829 920.807  51.362 930.158  52.349 934.547  53.042  952.33   56.08
 956.804   57.19 965.398   59.53  972.56  61.067  984.91  63.282 991.235  63.473
 998.453  63.958 1004.61  65.0791010.194  65.3041027.766  65.4991034.128  65.436
1049.194  65.1161054.579  64.862 1068.13   64.521078.007  64.8741087.764  65.318
1095.584  65.4991101.373  65.2581115.189  65.294 1115.72  65.3041130.581  66.359
1141.693  67.3161146.808  68.3331151.461  69.0851156.133  69.4971170.019  71.219
1170.039  71.2231170.062  71.227
#Mann= 2 , 0 , 0 
     230    .023       01170.062    .023       0
Bank Sta=230,1170.062
XS Rating Curve= 0 ,0
XS HTab Starting El and Incr=51.51,0.3, 67 
Exp/Cntr=0.3,0.1

Type RM Length L Ch R = 1 ,1126.93*,95,95,95
XS GIS Cut Line=2
   7483516.41375    4946840.4975   7483313.20625      4945673.79
Node Last Edited Time=Dec/18/2015 13:55:12
#Sta/Elev= 92 
     257  71.326 268.725  65.508 272.382  64.483 275.749  63.928 276.317  63.781
 286.401  62.186 292.322  61.561 295.358  61.369  299.72  61.886 304.291  62.312
 315.042  62.013 315.484  62.011 320.385  62.193 326.401  62.784 330.734  62.988
 337.476  63.792 350.108  63.921  356.84  64.971 363.307  67.448 366.826  70.353
 371.942  71.404 493.351  71.325 509.855  69.619 518.549  69.519  521.14  69.453
 537.963  67.895 540.099  67.593 540.423  67.537  559.94  65.242 561.243  65.157
 566.743  64.538 601.929  62.165 602.893  62.118 633.139  60.709 635.643  60.581
 664.378  59.766 676.368  59.337 690.812  58.864 723.399  56.936 725.067  55.799
 735.627  55.061 740.844  54.739 764.855  55.524 767.729  55.736 774.522  55.822
 777.995  56.027 778.467   56.08 799.451  57.978 807.134  58.292 820.088   58.58
 824.208  58.439 840.674  58.074 852.133  56.615  855.94  56.175 856.077  56.175
 867.154  56.024 877.631  53.599 880.169  53.486 896.038  52.846 901.827  52.218
 909.288  51.394 932.514  50.936 941.449  52.055 945.643  52.847 962.636  56.175
 966.912  57.185 975.124  59.369 981.968  60.982  993.77  63.546 999.814  63.758
1006.711  64.1341012.595   65.281017.931  65.3941034.723  65.4991040.802  65.382
1055.199  65.0191060.345  64.8191073.295  64.4651082.734  64.9111092.057  65.399
 1099.53  65.5861105.061  65.5361118.265  65.7241118.772  65.7421132.973  66.621
1143.592  67.3631148.479  68.3771152.925  69.2121157.391  69.6521170.659  71.206
1170.679  71.2091170.701  71.214
#Mann= 2 , 0 , 0 
     257    .023       01170.701    .023       0
Bank Sta=257,1170.701
XS Rating Curve= 0 ,0
XS HTab Starting El and Incr=51.09,0.3, 68 
Exp/Cntr=0.3,0.1

Type RM Length L Ch R = 1 ,1126.84 ,92.727,92.727,92.727
BEGIN DESCRIPTION:
Slozeni presek
END DESCRIPTION:
XS GIS Cut Line=2
      7483594.44       4946836.7      7483416.62      4945662.75
Node Last Edited Time=Dec/18/2015 13:55:12
#Sta/Elev= 45 
     284    71.2  295.46    65.7  302.88   64.01  321.49   61.97  330.22   62.87
  341.16   62.45     375   62.85  381.58   64.05   387.9   66.88  391.34    70.2
  396.34    71.4     515    71.3  531.13   69.35  542.16    69.2  560.69   67.49
  586.73   64.18  621.12   61.62  654.07   59.88  707.99   58.48  739.84   56.67
  741.47   55.39  756.89   54.32   793.2   55.81  814.17   57.95  834.34   58.84
  854.46    58.4  869.38   56.24  880.34   56.13  890.58   53.42  908.57   52.59
  921.52   50.96  944.22   50.51  952.74   51.76  977.02   57.18 1002.63   63.81
 1014.97   64.31 1020.58   65.48 1041.68    65.5 1078.46   64.41 1096.35   65.48
 1121.3466.15377 1145.49   67.41 1154.39   69.34  1171.371.19202 1171.34    71.2
#Mann= 3 , 0 , 0 
     284    .023       0     284    .023       0 1171.34    .023       0
Bank Sta=284,1171.34
XS Rating Curve= 0 ,0
XS HTab Starting El and Incr=50.66,0.3, 69 
Exp/Cntr=0.3,0.1

Type RM Length L Ch R = 1 ,1126.74*,92.727,92.727,92.727
XS GIS Cut Line=2
7483681.820908444946834.259090937483512.720908374945656.79545459
Node Last Edited Time=Dec/18/2015 13:55:12
#Sta/Elev= 82 
 302.273  71.208 313.164  66.161 320.215  64.594 325.316  64.037 337.901  62.554
 346.197  63.265 352.759  62.939 356.594  62.782 385.375  62.982 388.753   63.01
 395.006  64.082 401.012  66.636 404.281  69.644 409.033  70.721 454.045  70.547
 521.799  70.419 537.128  68.629 544.521  68.525  547.61  68.475  565.22  66.868
 589.967  63.784 619.161  61.617 622.649  61.366 649.494  59.984 653.962   59.77
 679.387  59.203 705.204  58.556 721.661  57.657 733.686  57.056 735.472  56.958
 737.021  55.793 751.675  54.811 786.182  56.142 789.744  56.488  806.11   58.05
 820.769  58.637 825.278  58.804 844.399  58.306 858.578   56.27 866.688   56.15
 868.994   56.13 878.725  53.674 895.822  52.933  906.26  51.684 908.128  51.437
 929.701  50.776 938.885  51.978 940.268  52.249  948.77  53.986 965.058  56.953
 965.877  57.127 977.118  59.675 984.372   61.21 989.496  62.366 992.665  63.039
 996.924  63.1581005.967  63.6131012.014  64.7731016.045  64.8411028.249  65.289
1030.228  65.3011034.759  65.3171041.335   65.171043.052  65.1851061.884  64.707
1074.406  64.4221079.803  64.706 1087.69  65.0611093.691  65.3711097.694  65.467
1101.594  65.7611107.229  65.7411112.086  65.8271120.629  66.1181133.436  66.823
1140.742  67.1481146.662  67.3841150.149  68.0081156.256  69.1711164.674  70.013
1174.484  71.1731174.527  71.181
#Mann= 2 , 0 , 0 
 302.273    .023       01174.527    .023       0
Bank Sta=302.273,1174.527
XS Rating Curve= 0 ,0
XS HTab Starting El and Incr=50.93,0.3, 69 
Exp/Cntr=0.3,0.1

Type RM Length L Ch R = 1 ,1126.65*,92.727,92.727,92.727
XS GIS Cut Line=2
7483769.201816884946831.818181857483608.821816744945650.84090918
Node Last Edited Time=Dec/18/2015 13:55:12
#Sta/Elev= 82 
 320.545  71.216 330.867  66.622  337.55  65.178 342.384  64.652 354.311  63.139
 362.174   63.66 368.393  63.273 372.027  63.113 399.305  63.156 402.506  63.169
 408.432  64.113 414.124  66.392 417.223  69.089 421.726  70.041 464.385  69.735
 528.599  69.537 543.127  67.908 550.133  67.805 553.061  67.751  569.75  66.245
 593.203  63.388 620.871  61.342 624.177  61.111  649.62   59.84 653.854  59.659
 677.951  59.221 702.418  58.631 718.015  57.818 729.411  57.336 731.104  57.246
 732.572  56.196  746.46  55.302 779.164  56.475  782.54  56.783  798.05   58.15
 811.943  58.643 816.217  58.768 834.338  58.212 847.776    56.3 855.462  56.146
 857.647   56.13  866.87  53.928 883.073  53.276 892.966  52.161 894.737  51.915
 915.182  51.043  925.03  52.197 926.513  52.451  935.63  54.166 953.096  56.726
 953.975  56.877 966.028  59.273 973.807  60.602 979.301  61.684 982.699  62.268
 987.266  62.346 996.963  62.9151003.448  64.067 1007.77  64.1991020.857  65.084
1022.979  65.1061027.838  65.1341034.889  65.0211036.731  65.0991056.924  64.659
1070.353  64.433 1076.14  64.7021084.597  64.9751091.032  65.2631095.325  65.355
1099.507  65.8441105.549  65.6641110.757  65.7151119.918  66.0821133.651  66.875
1141.486  67.1721147.834  67.3581151.573  67.9041158.122  69.0021167.148  69.831
1177.668  71.1531177.714  71.162
#Mann= 2 , 0 , 0 
 320.545    .023       01177.714    .023       0
Bank Sta=320.545,1177.714
XS Rating Curve= 0 ,0
XS HTab Starting El and Incr=51.19,0.3, 68 
Exp/Cntr=0.3,0.1

Type RM Length L Ch R = 1 ,1126.56*,92.727,92.727,92.727
XS GIS Cut Line=2
 7483856.58273254946829.377272587483704.922733024945644.88636328
Node Last Edited Time=Dec/18/2015 13:55:12
#Sta/Elev= 82 
 338.818  71.225 348.571  67.083 354.885  65.762 359.453  65.268 370.722  63.723
 378.151  64.055 384.027  63.607 387.461  63.445 413.234  63.329 416.259  63.329
 421.858  64.145 427.237  66.148 430.164  68.533 434.419  69.362 474.726  68.922
 535.398  68.656 549.125  67.187 555.745  67.086 558.511  67.026  574.28  65.623
  596.44  62.993 622.582  61.066 625.706  60.857 649.745  59.695 653.746  59.549
 676.514  59.238 699.632  58.707 714.369   57.98 725.137  57.615 726.736  57.534
 728.123    56.6 741.246  55.792 772.145  56.807 775.335  57.078 789.991   58.25
 803.117   58.65 807.155  58.732 824.277  58.118 836.974  56.329 844.236  56.142
 846.301   56.13 855.015  54.182 870.325  53.618 879.672  52.637 881.345  52.392
 900.663  51.309 911.175  52.415 912.759  52.653  922.49  54.345 941.134    56.5
 942.072  56.628 954.938  58.872 963.241  59.994 969.107  61.001 972.734  61.496
 977.609  61.535  987.96  62.218 994.882   63.36 999.496  63.5571013.465  64.879
 1015.73  64.9111020.917   64.951028.444  64.872 1030.41  65.0121051.965  64.611
1066.299  64.4451072.477  64.6991081.504  64.8891088.373  65.1541092.956  65.242
1097.419  65.9261103.869  65.5871109.429  65.6021119.208  66.0451133.866  66.927
1142.229  67.1961149.006  67.3321152.997    67.81159.988  68.8341169.623  69.648
1180.853  71.1341180.902  71.143
#Mann= 2 , 0 , 0 
 338.818    .023       01180.902    .023       0
Bank Sta=338.818,1180.902
XS Rating Curve= 0 ,0
XS HTab Starting El and Incr=51.46,0.3, 67 
Exp/Cntr=0.3,0.1

Type RM Length L Ch R = 1 ,1126.46*,92.727,92.727,92.727
XS GIS Cut Line=2
7483943.963633754946826.936363717483801.023633494945638.93181836
Node Last Edited Time=Dec/18/2015 13:55:12
#Sta/Elev= 82 
 357.091  71.233 366.274  67.544  372.22  66.346 376.521  65.883 387.133  64.307
 394.128   64.45 399.661  63.941 402.895  63.776 427.164  63.503 430.012  63.489
 435.284  64.176 440.349  65.904 443.105  67.977 447.112  68.683 485.066  68.109
 542.198  67.774 555.123  66.466 561.357  66.366 563.962  66.301  578.81  65.001
 599.677  62.597 624.293   60.79 627.235  60.603 649.871  59.551 653.638  59.438
 675.077  59.256 696.846  58.783 710.723  58.141 720.862  57.894 722.368  57.822
 723.674  57.003 736.031  56.283 765.127  57.139 768.131  57.373 781.931   58.35
 794.291  58.656 798.094  58.697 814.216  58.024 826.172  56.359  833.01  56.138
 834.955   56.13  843.16  54.436 857.576  53.961 866.378  53.114 867.954  52.869
 886.144  51.575 897.321  52.633 899.004  52.855  909.35  54.524 929.172  56.273
 930.169  56.378 943.849   58.47 952.676  59.386 958.912  60.318 962.768  60.725
 967.952  60.723 978.956   61.52 986.316  62.654 991.221  62.9151006.073  64.675
1008.481  64.7161013.996  64.7671021.998  64.7231024.089  64.9261047.005  64.564
1062.245  64.4561068.813  64.6951078.411  64.8031085.714  65.0451090.586  65.129
1095.332  66.0091102.189   65.51  1108.1  65.4891118.497  66.0091134.082  66.978
1142.973   67.221150.178  67.3061154.421  67.6961161.853  68.6651172.098  69.466
1184.037  71.1141184.089  71.124
#Mann= 2 , 0 , 0 
 357.091    .023       01184.089    .023       0
Bank Sta=357.091,1184.089
XS Rating Curve= 0 ,0
XS HTab Starting El and Incr=51.73,0.3, 66 
Exp/Cntr=0.3,0.1

Type RM Length L Ch R = 1 ,1126.37*,92.727,92.727,92.727
XS GIS Cut Line=2
  7484031.3445354946824.495454847483897.124533954945632.97727344
Node Last Edited Time=Dec/18/2015 13:55:12
#Sta/Elev= 82 
 375.364  71.241 383.978  68.005 389.555   66.93  393.59  66.498 403.543  64.891
 410.105  64.845 415.295  64.275 418.329  64.108 441.093  63.677 443.765  63.649
 448.711  64.208 453.461   65.66 456.047  67.421 459.805  68.003 495.407  67.296
 548.997  66.893 561.121  65.745 566.969  65.647 569.412  65.576  583.34  64.379
 602.914  62.201 626.004  60.514 628.763  60.349 649.996  59.406  653.53  59.328
  673.64  59.274  694.06  58.859 707.077  58.302 716.588  58.174     718   58.11
 719.225  57.406 730.816  56.774 758.109  57.472 760.926  57.669 773.871   58.45
 785.465  58.662 789.032  58.661 804.156  57.931  815.37  56.389 821.785  56.134
 823.609   56.13 831.306   54.69 844.828  54.304 853.084   53.59 854.562  53.346
 871.625  51.842 883.466  52.852 885.249  53.057  896.21  54.704  917.21  56.046
 918.266  56.128 932.759  58.069 942.111  58.778 948.718  59.636 952.803  59.954